MODEL 1
REMARK VINA RESULT:    -5.979      0.000      0.000
REMARK INTER + INTRA:         -10.120
REMARK INTER:                  -8.425
REMARK INTRA:                  -1.694
REMARK UNBOUND:                -1.694
REMARK  Name = ./IMPHY000001_3D.pdb
REMARK  10 active torsions:
REMARK  status: ('A' for Active; 'I' for Inactive)
REMARK    1  A    between atoms: O_3  and  C_19
REMARK    2  A    between atoms: O_3  and  C_25
REMARK    3  A    between atoms: O_4  and  C_20
REMARK    4  A    between atoms: O_4  and  C_26
REMARK    5  A    between atoms: O_5  and  C_23
REMARK    6  A    between atoms: O_6  and  C_24
REMARK    7  A    between atoms: C_7  and  C_10
REMARK    8  A    between atoms: C_8  and  C_11
REMARK    9  A    between atoms: C_10  and  C_13
REMARK   10  A    between atoms: C_11  and  C_14
REMARK                            x       y       z     vdW  Elec       q    Type
REMARK                         _______ _______ _______ _____ _____    ______ ____
ROOT
ATOM      1  O   UNL     1     -13.542   2.804   4.121  0.00  0.00    +0.000 OA
ATOM      2  O   UNL     1     -13.599   4.986   4.817  0.00  0.00    +0.000 OA
ATOM      3  C   UNL     1     -15.429   2.788   2.729  0.00  0.00    +0.000 C 
ATOM      4  C   UNL     1     -15.475   4.046   3.591  0.00  0.00    +0.000 C 
ATOM      5  C   UNL     1     -14.460   1.904   3.488  0.00  0.00    +0.000 C 
ATOM      6  C   UNL     1     -14.115   4.040   4.240  0.00  0.00    +0.000 C 
ENDROOT
BRANCH   3   7
ATOM      7  C   UNL     1     -14.903   3.098   1.325  0.00  0.00    +0.000 C 
BRANCH   7   8
ATOM      8  C   UNL     1     -16.021   3.246   0.325  0.00  0.00    +0.000 A 
ATOM      9  C   UNL     1     -16.261   2.228  -0.585  0.00  0.00    +0.000 A 
ATOM     10  C   UNL     1     -16.791   4.400   0.330  0.00  0.00    +0.000 A 
ATOM     11  C   UNL     1     -17.295   2.366  -1.510  0.00  0.00    +0.000 A 
ATOM     12  C   UNL     1     -17.825   4.538  -0.596  0.00  0.00    +0.000 A 
ATOM     13  C   UNL     1     -18.078   3.520  -1.516  0.00  0.00    +0.000 A 
BRANCH  11  14
ATOM     14  O   UNL     1     -17.531   1.366  -2.406  0.00  0.00    +0.000 OA
ATOM     15  C   UNL     1     -16.433   0.520  -2.737  0.00  0.00    +0.000 C 
ENDBRANCH  11  14
BRANCH  13  16
ATOM     16  O   UNL     1     -19.090   3.667  -2.415  0.00  0.00    +0.000 OA
ATOM     17  H   UNL     1     -19.320   2.788  -2.762  0.00  0.00    +0.000 HD
ENDBRANCH  13  16
ENDBRANCH   7   8
ENDBRANCH   3   7
BRANCH   4  18
ATOM     18  C   UNL     1     -16.557   3.995   4.661  0.00  0.00    +0.000 C 
BRANCH  18  19
ATOM     19  C   UNL     1     -17.940   4.007   4.063  0.00  0.00    +0.000 A 
ATOM     20  C   UNL     1     -18.773   2.913   4.253  0.00  0.00    +0.000 A 
ATOM     21  C   UNL     1     -18.360   5.109   3.333  0.00  0.00    +0.000 A 
ATOM     22  C   UNL     1     -20.053   2.923   3.700  0.00  0.00    +0.000 A 
ATOM     23  C   UNL     1     -19.640   5.119   2.780  0.00  0.00    +0.000 A 
ATOM     24  C   UNL     1     -20.486   4.026   2.963  0.00  0.00    +0.000 A 
BRANCH  22  25
ATOM     25  O   UNL     1     -20.870   1.850   3.884  0.00  0.00    +0.000 OA
ATOM     26  C   UNL     1     -21.524   1.741   5.148  0.00  0.00    +0.000 C 
ENDBRANCH  22  25
BRANCH  24  27
ATOM     27  O   UNL     1     -21.734   4.047   2.419  0.00  0.00    +0.000 OA
ATOM     28  H   UNL     1     -21.832   3.274   1.836  0.00  0.00    +0.000 HD
ENDBRANCH  24  27
ENDBRANCH  18  19
ENDBRANCH   4  18
TORSDOF 8
ENDMDL
MODEL 2
REMARK VINA RESULT:    -5.548      2.438      6.121
REMARK INTER + INTRA:          -9.513
REMARK INTER:                  -7.756
REMARK INTRA:                  -1.757
REMARK UNBOUND:                -1.694
REMARK  Name = ./IMPHY000001_3D.pdb
REMARK  10 active torsions:
REMARK  status: ('A' for Active; 'I' for Inactive)
REMARK    1  A    between atoms: O_3  and  C_19
REMARK    2  A    between atoms: O_3  and  C_25
REMARK    3  A    between atoms: O_4  and  C_20
REMARK    4  A    between atoms: O_4  and  C_26
REMARK    5  A    between atoms: O_5  and  C_23
REMARK    6  A    between atoms: O_6  and  C_24
REMARK    7  A    between atoms: C_7  and  C_10
REMARK    8  A    between atoms: C_8  and  C_11
REMARK    9  A    between atoms: C_10  and  C_13
REMARK   10  A    between atoms: C_11  and  C_14
REMARK                            x       y       z     vdW  Elec       q    Type
REMARK                         _______ _______ _______ _____ _____    ______ ____
ROOT
ATOM      1  O   UNL     1     -12.442   3.316   1.017  0.00  0.00    +0.000 OA
ATOM      2  O   UNL     1     -13.074   1.175   0.497  0.00  0.00    +0.000 OA
ATOM      3  C   UNL     1     -14.246   3.934   2.382  0.00  0.00    +0.000 C 
ATOM      4  C   UNL     1     -14.627   2.668   1.623  0.00  0.00    +0.000 C 
ATOM      5  C   UNL     1     -13.087   4.471   1.566  0.00  0.00    +0.000 C 
ATOM      6  C   UNL     1     -13.319   2.266   0.991  0.00  0.00    +0.000 C 
ENDROOT
BRANCH   3   7
ATOM      7  C   UNL     1     -13.805   3.611   3.813  0.00  0.00    +0.000 C 
BRANCH   7   8
ATOM      8  C   UNL     1     -14.637   4.341   4.836  0.00  0.00    +0.000 A 
ATOM      9  C   UNL     1     -14.023   4.871   5.961  0.00  0.00    +0.000 A 
ATOM     10  C   UNL     1     -16.003   4.472   4.636  0.00  0.00    +0.000 A 
ATOM     11  C   UNL     1     -14.792   5.546   6.908  0.00  0.00    +0.000 A 
ATOM     12  C   UNL     1     -16.773   5.147   5.583  0.00  0.00    +0.000 A 
ATOM     13  C   UNL     1     -16.167   5.685   6.719  0.00  0.00    +0.000 A 
BRANCH  11  14
ATOM     14  O   UNL     1     -14.190   6.065   8.014  0.00  0.00    +0.000 OA
ATOM     15  C   UNL     1     -13.532   5.147   8.885  0.00  0.00    +0.000 C 
ENDBRANCH  11  14
BRANCH  13  16
ATOM     16  O   UNL     1     -16.929   6.342   7.637  0.00  0.00    +0.000 OA
ATOM     17  H   UNL     1     -17.796   5.904   7.684  0.00  0.00    +0.000 HD
ENDBRANCH  13  16
ENDBRANCH   7   8
ENDBRANCH   3   7
BRANCH   4  18
ATOM     18  C   UNL     1     -15.669   2.913   0.540  0.00  0.00    +0.000 C 
BRANCH  18  19
ATOM     19  C   UNL     1     -16.997   3.324   1.119  0.00  0.00    +0.000 A 
ATOM     20  C   UNL     1     -17.556   4.539   0.747  0.00  0.00    +0.000 A 
ATOM     21  C   UNL     1     -17.641   2.484   2.015  0.00  0.00    +0.000 A 
ATOM     22  C   UNL     1     -18.786   4.920   1.284  0.00  0.00    +0.000 A 
ATOM     23  C   UNL     1     -18.870   2.865   2.551  0.00  0.00    +0.000 A 
ATOM     24  C   UNL     1     -19.442   4.083   2.186  0.00  0.00    +0.000 A 
BRANCH  22  25
ATOM     25  O   UNL     1     -19.334   6.112   0.920  0.00  0.00    +0.000 OA
ATOM     26  C   UNL     1     -18.565   6.941   0.050  0.00  0.00    +0.000 C 
ENDBRANCH  22  25
BRANCH  24  27
ATOM     27  O   UNL     1     -20.644   4.444   2.716  0.00  0.00    +0.000 OA
ATOM     28  H   UNL     1     -21.084   3.647   3.058  0.00  0.00    +0.000 HD
ENDBRANCH  24  27
ENDBRANCH  18  19
ENDBRANCH   4  18
TORSDOF 8
ENDMDL
MODEL 3
REMARK VINA RESULT:    -5.173     13.482     16.659
REMARK INTER + INTRA:          -8.984
REMARK INTER:                  -7.375
REMARK INTRA:                  -1.608
REMARK UNBOUND:                -1.694
REMARK  Name = ./IMPHY000001_3D.pdb
REMARK  10 active torsions:
REMARK  status: ('A' for Active; 'I' for Inactive)
REMARK    1  A    between atoms: O_3  and  C_19
REMARK    2  A    between atoms: O_3  and  C_25
REMARK    3  A    between atoms: O_4  and  C_20
REMARK    4  A    between atoms: O_4  and  C_26
REMARK    5  A    between atoms: O_5  and  C_23
REMARK    6  A    between atoms: O_6  and  C_24
REMARK    7  A    between atoms: C_7  and  C_10
REMARK    8  A    between atoms: C_8  and  C_11
REMARK    9  A    between atoms: C_10  and  C_13
REMARK   10  A    between atoms: C_11  and  C_14
REMARK                            x       y       z     vdW  Elec       q    Type
REMARK                         _______ _______ _______ _____ _____    ______ ____
ROOT
ATOM      1  O   UNL     1     -29.433  11.778  13.775  0.00  0.00    +0.000 OA
ATOM      2  O   UNL     1     -27.246  11.873  14.455  0.00  0.00    +0.000 OA
ATOM      3  C   UNL     1     -29.121  11.825  11.452  0.00  0.00    +0.000 C 
ATOM      4  C   UNL     1     -27.817  12.245  12.122  0.00  0.00    +0.000 C 
ATOM      5  C   UNL     1     -30.140  12.030  12.556  0.00  0.00    +0.000 C 
ATOM      6  C   UNL     1     -28.090  11.940  13.573  0.00  0.00    +0.000 C 
ENDROOT
BRANCH   3   7
ATOM      7  C   UNL     1     -29.073  10.358  11.016  0.00  0.00    +0.000 C 
BRANCH   7   8
ATOM      8  C   UNL     1     -28.138  10.147   9.853  0.00  0.00    +0.000 A 
ATOM      9  C   UNL     1     -26.995   9.382  10.027  0.00  0.00    +0.000 A 
ATOM     10  C   UNL     1     -28.437  10.721   8.626  0.00  0.00    +0.000 A 
ATOM     11  C   UNL     1     -26.130   9.188   8.951  0.00  0.00    +0.000 A 
ATOM     12  C   UNL     1     -27.572  10.527   7.550  0.00  0.00    +0.000 A 
ATOM     13  C   UNL     1     -26.418   9.759   7.712  0.00  0.00    +0.000 A 
BRANCH  11  14
ATOM     14  O   UNL     1     -25.005   8.437   9.122  0.00  0.00    +0.000 OA
ATOM     15  C   UNL     1     -24.632   8.126  10.462  0.00  0.00    +0.000 C 
ENDBRANCH  11  14
BRANCH  13  16
ATOM     16  O   UNL     1     -25.581   9.576   6.653  0.00  0.00    +0.000 OA
ATOM     17  H   UNL     1     -24.665   9.617   6.977  0.00  0.00    +0.000 HD
ENDBRANCH  13  16
ENDBRANCH   7   8
ENDBRANCH   3   7
BRANCH   4  18
ATOM     18  C   UNL     1     -27.512  13.727  11.956  0.00  0.00    +0.000 C 
BRANCH  18  19
ATOM     19  C   UNL     1     -28.014  14.261  10.639  0.00  0.00    +0.000 A 
ATOM     20  C   UNL     1     -29.193  14.993  10.607  0.00  0.00    +0.000 A 
ATOM     21  C   UNL     1     -27.293  14.011   9.481  0.00  0.00    +0.000 A 
ATOM     22  C   UNL     1     -29.658  15.487   9.388  0.00  0.00    +0.000 A 
ATOM     23  C   UNL     1     -27.759  14.505   8.263  0.00  0.00    +0.000 A 
ATOM     24  C   UNL     1     -28.942  15.243   8.217  0.00  0.00    +0.000 A 
BRANCH  22  25
ATOM     25  O   UNL     1     -30.815  16.205   9.356  0.00  0.00    +0.000 OA
ATOM     26  C   UNL     1     -32.029  15.490   9.580  0.00  0.00    +0.000 C 
ENDBRANCH  22  25
BRANCH  24  27
ATOM     27  O   UNL     1     -29.387  15.721   7.022  0.00  0.00    +0.000 OA
ATOM     28  H   UNL     1     -28.622  16.038   6.511  0.00  0.00    +0.000 HD
ENDBRANCH  24  27
ENDBRANCH  18  19
ENDBRANCH   4  18
TORSDOF 8
ENDMDL
MODEL 4
REMARK VINA RESULT:    -4.976      2.279      5.220
REMARK INTER + INTRA:          -8.707
REMARK INTER:                  -7.020
REMARK INTRA:                  -1.687
REMARK UNBOUND:                -1.694
REMARK  Name = ./IMPHY000001_3D.pdb
REMARK  10 active torsions:
REMARK  status: ('A' for Active; 'I' for Inactive)
REMARK    1  A    between atoms: O_3  and  C_19
REMARK    2  A    between atoms: O_3  and  C_25
REMARK    3  A    between atoms: O_4  and  C_20
REMARK    4  A    between atoms: O_4  and  C_26
REMARK    5  A    between atoms: O_5  and  C_23
REMARK    6  A    between atoms: O_6  and  C_24
REMARK    7  A    between atoms: C_7  and  C_10
REMARK    8  A    between atoms: C_8  and  C_11
REMARK    9  A    between atoms: C_10  and  C_13
REMARK   10  A    between atoms: C_11  and  C_14
REMARK                            x       y       z     vdW  Elec       q    Type
REMARK                         _______ _______ _______ _____ _____    ______ ____
ROOT
ATOM      1  O   UNL     1     -19.367   4.427   0.053  0.00  0.00    +0.000 OA
ATOM      2  O   UNL     1     -20.514   3.423   1.764  0.00  0.00    +0.000 OA
ATOM      3  C   UNL     1     -17.193   4.325   0.927  0.00  0.00    +0.000 C 
ATOM      4  C   UNL     1     -18.181   4.040   2.054  0.00  0.00    +0.000 C 
ATOM      5  C   UNL     1     -18.066   5.003  -0.112  0.00  0.00    +0.000 C 
ATOM      6  C   UNL     1     -19.485   3.903   1.311  0.00  0.00    +0.000 C 
ENDROOT
BRANCH   3   7
ATOM      7  C   UNL     1     -16.592   3.029   0.376  0.00  0.00    +0.000 C 
BRANCH   7   8
ATOM      8  C   UNL     1     -15.165   2.837   0.820  0.00  0.00    +0.000 A 
ATOM      9  C   UNL     1     -14.616   1.564   0.819  0.00  0.00    +0.000 A 
ATOM     10  C   UNL     1     -14.424   3.938   1.225  0.00  0.00    +0.000 A 
ATOM     11  C   UNL     1     -13.295   1.387   1.231  0.00  0.00    +0.000 A 
ATOM     12  C   UNL     1     -13.103   3.760   1.637  0.00  0.00    +0.000 A 
ATOM     13  C   UNL     1     -12.539   2.485   1.640  0.00  0.00    +0.000 A 
BRANCH  11  14
ATOM     14  O   UNL     1     -12.756   0.136   1.231  0.00  0.00    +0.000 OA
ATOM     15  C   UNL     1     -12.427  -0.428  -0.036  0.00  0.00    +0.000 C 
ENDBRANCH  11  14
BRANCH  13  16
ATOM     16  O   UNL     1     -11.248   2.325   2.044  0.00  0.00    +0.000 OA
ATOM     17  H   UNL     1     -10.691   2.214   1.255  0.00  0.00    +0.000 HD
ENDBRANCH  13  16
ENDBRANCH   7   8
ENDBRANCH   3   7
BRANCH   4  18
ATOM     18  C   UNL     1     -18.279   5.177   3.062  0.00  0.00    +0.000 C 
BRANCH  18  19
ATOM     19  C   UNL     1     -17.389   4.948   4.255  0.00  0.00    +0.000 A 
ATOM     20  C   UNL     1     -16.825   3.696   4.455  0.00  0.00    +0.000 A 
ATOM     21  C   UNL     1     -17.146   5.991   5.136  0.00  0.00    +0.000 A 
ATOM     22  C   UNL     1     -16.001   3.483   5.560  0.00  0.00    +0.000 A 
ATOM     23  C   UNL     1     -16.322   5.779   6.242  0.00  0.00    +0.000 A 
ATOM     24  C   UNL     1     -15.751   4.525   6.454  0.00  0.00    +0.000 A 
BRANCH  22  25
ATOM     25  O   UNL     1     -15.450   2.254   5.757  0.00  0.00    +0.000 OA
ATOM     26  C   UNL     1     -14.709   1.694   4.675  0.00  0.00    +0.000 C 
ENDBRANCH  22  25
BRANCH  24  27
ATOM     27  O   UNL     1     -14.948   4.330   7.536  0.00  0.00    +0.000 OA
ATOM     28  H   UNL     1     -14.329   3.605   7.336  0.00  0.00    +0.000 HD
ENDBRANCH  24  27
ENDBRANCH  18  19
ENDBRANCH   4  18
TORSDOF 8
ENDMDL
MODEL 5
REMARK VINA RESULT:    -4.942     13.770     16.814
REMARK INTER + INTRA:          -8.659
REMARK INTER:                  -6.879
REMARK INTRA:                  -1.780
REMARK UNBOUND:                -1.694
REMARK  Name = ./IMPHY000001_3D.pdb
REMARK  10 active torsions:
REMARK  status: ('A' for Active; 'I' for Inactive)
REMARK    1  A    between atoms: O_3  and  C_19
REMARK    2  A    between atoms: O_3  and  C_25
REMARK    3  A    between atoms: O_4  and  C_20
REMARK    4  A    between atoms: O_4  and  C_26
REMARK    5  A    between atoms: O_5  and  C_23
REMARK    6  A    between atoms: O_6  and  C_24
REMARK    7  A    between atoms: C_7  and  C_10
REMARK    8  A    between atoms: C_8  and  C_11
REMARK    9  A    between atoms: C_10  and  C_13
REMARK   10  A    between atoms: C_11  and  C_14
REMARK                            x       y       z     vdW  Elec       q    Type
REMARK                         _______ _______ _______ _____ _____    ______ ____
ROOT
ATOM      1  O   UNL     1     -27.244  11.303  14.386  0.00  0.00    +0.000 OA
ATOM      2  O   UNL     1     -25.697  12.994  14.431  0.00  0.00    +0.000 OA
ATOM      3  C   UNL     1     -27.828  11.369  12.116  0.00  0.00    +0.000 C 
ATOM      4  C   UNL     1     -27.074  12.649  12.458  0.00  0.00    +0.000 C 
ATOM      5  C   UNL     1     -28.264  10.870  13.480  0.00  0.00    +0.000 C 
ATOM      6  C   UNL     1     -26.566  12.362  13.848  0.00  0.00    +0.000 C 
ENDROOT
BRANCH   3   7
ATOM      7  C   UNL     1     -26.911  10.352  11.429  0.00  0.00    +0.000 C 
BRANCH   7   8
ATOM      8  C   UNL     1     -27.279  10.151   9.982  0.00  0.00    +0.000 A 
ATOM      9  C   UNL     1     -28.511  10.591   9.524  0.00  0.00    +0.000 A 
ATOM     10  C   UNL     1     -26.379   9.527   9.130  0.00  0.00    +0.000 A 
ATOM     11  C   UNL     1     -28.852  10.403   8.185  0.00  0.00    +0.000 A 
ATOM     12  C   UNL     1     -26.720   9.340   7.791  0.00  0.00    +0.000 A 
ATOM     13  C   UNL     1     -27.956   9.778   7.318  0.00  0.00    +0.000 A 
BRANCH  11  14
ATOM     14  O   UNL     1     -30.064  10.834   7.735  0.00  0.00    +0.000 OA
ATOM     15  C   UNL     1     -30.481  12.136   8.141  0.00  0.00    +0.000 C 
ENDBRANCH  11  14
BRANCH  13  16
ATOM     16  O   UNL     1     -28.278   9.589   6.007  0.00  0.00    +0.000 OA
ATOM     17  H   UNL     1     -27.520   9.170   5.565  0.00  0.00    +0.000 HD
ENDBRANCH  13  16
ENDBRANCH   7   8
ENDBRANCH   3   7
BRANCH   4  18
ATOM     18  C   UNL     1     -27.970  13.880  12.480  0.00  0.00    +0.000 C 
BRANCH  18  19
ATOM     19  C   UNL     1     -28.258  14.392  11.093  0.00  0.00    +0.000 A 
ATOM     20  C   UNL     1     -29.480  14.995  10.830  0.00  0.00    +0.000 A 
ATOM     21  C   UNL     1     -27.300  14.252  10.100  0.00  0.00    +0.000 A 
ATOM     22  C   UNL     1     -29.749  15.468   9.546  0.00  0.00    +0.000 A 
ATOM     23  C   UNL     1     -27.568  14.725   8.816  0.00  0.00    +0.000 A 
ATOM     24  C   UNL     1     -28.793  15.333   8.539  0.00  0.00    +0.000 A 
BRANCH  22  25
ATOM     25  O   UNL     1     -30.948  16.058   9.287  0.00  0.00    +0.000 OA
ATOM     26  C   UNL     1     -32.118  15.372   9.728  0.00  0.00    +0.000 C 
ENDBRANCH  22  25
BRANCH  24  27
ATOM     27  O   UNL     1     -29.043  15.792   7.282  0.00  0.00    +0.000 OA
ATOM     28  H   UNL     1     -29.904  16.245   7.282  0.00  0.00    +0.000 HD
ENDBRANCH  24  27
ENDBRANCH  18  19
ENDBRANCH   4  18
TORSDOF 8
ENDMDL
MODEL 6
REMARK VINA RESULT:    -4.919     14.166     16.967
REMARK INTER + INTRA:          -8.627
REMARK INTER:                  -6.672
REMARK INTRA:                  -1.955
REMARK UNBOUND:                -1.694
REMARK  Name = ./IMPHY000001_3D.pdb
REMARK  10 active torsions:
REMARK  status: ('A' for Active; 'I' for Inactive)
REMARK    1  A    between atoms: O_3  and  C_19
REMARK    2  A    between atoms: O_3  and  C_25
REMARK    3  A    between atoms: O_4  and  C_20
REMARK    4  A    between atoms: O_4  and  C_26
REMARK    5  A    between atoms: O_5  and  C_23
REMARK    6  A    between atoms: O_6  and  C_24
REMARK    7  A    between atoms: C_7  and  C_10
REMARK    8  A    between atoms: C_8  and  C_11
REMARK    9  A    between atoms: C_10  and  C_13
REMARK   10  A    between atoms: C_11  and  C_14
REMARK                            x       y       z     vdW  Elec       q    Type
REMARK                         _______ _______ _______ _____ _____    ______ ____
ROOT
ATOM      1  O   UNL     1     -28.486  16.369   8.941  0.00  0.00    +0.000 OA
ATOM      2  O   UNL     1     -30.681  16.081   9.534  0.00  0.00    +0.000 OA
ATOM      3  C   UNL     1     -27.638  14.270   9.552  0.00  0.00    +0.000 C 
ATOM      4  C   UNL     1     -29.013  14.440  10.190  0.00  0.00    +0.000 C 
ATOM      5  C   UNL     1     -27.252  15.697   9.218  0.00  0.00    +0.000 C 
ATOM      6  C   UNL     1     -29.521  15.695   9.529  0.00  0.00    +0.000 C 
ENDROOT
BRANCH   3   7
ATOM      7  C   UNL     1     -27.717  13.413   8.285  0.00  0.00    +0.000 C 
BRANCH   7   8
ATOM      8  C   UNL     1     -27.704  11.940   8.601  0.00  0.00    +0.000 A 
ATOM      9  C   UNL     1     -28.304  11.049   7.724  0.00  0.00    +0.000 A 
ATOM     10  C   UNL     1     -27.092  11.497   9.765  0.00  0.00    +0.000 A 
ATOM     11  C   UNL     1     -28.292   9.686   8.016  0.00  0.00    +0.000 A 
ATOM     12  C   UNL     1     -27.080  10.134  10.057  0.00  0.00    +0.000 A 
ATOM     13  C   UNL     1     -27.680   9.228   9.183  0.00  0.00    +0.000 A 
BRANCH  11  14
ATOM     14  O   UNL     1     -28.883   8.810   7.155  0.00  0.00    +0.000 OA
ATOM     15  C   UNL     1     -29.585   9.366   6.046  0.00  0.00    +0.000 C 
ENDBRANCH  11  14
BRANCH  13  16
ATOM     16  O   UNL     1     -27.662   7.898   9.480  0.00  0.00    +0.000 OA
ATOM     17  H   UNL     1     -27.611   7.400   8.646  0.00  0.00    +0.000 HD
ENDBRANCH  13  16
ENDBRANCH   7   8
ENDBRANCH   3   7
BRANCH   4  18
ATOM     18  C   UNL     1     -28.949  14.641  11.698  0.00  0.00    +0.000 C 
BRANCH  18  19
ATOM     19  C   UNL     1     -28.505  13.392  12.414  0.00  0.00    +0.000 A 
ATOM     20  C   UNL     1     -27.219  13.326  12.933  0.00  0.00    +0.000 A 
ATOM     21  C   UNL     1     -29.385  12.329  12.543  0.00  0.00    +0.000 A 
ATOM     22  C   UNL     1     -26.807  12.170  13.596  0.00  0.00    +0.000 A 
ATOM     23  C   UNL     1     -28.973  11.173  13.206  0.00  0.00    +0.000 A 
ATOM     24  C   UNL     1     -27.683  11.093  13.732  0.00  0.00    +0.000 A 
BRANCH  22  25
ATOM     25  O   UNL     1     -25.545  12.104  14.103  0.00  0.00    +0.000 OA
ATOM     26  C   UNL     1     -25.327  12.704  15.379  0.00  0.00    +0.000 C 
ENDBRANCH  22  25
BRANCH  24  27
ATOM     27  O   UNL     1     -27.292   9.961  14.377  0.00  0.00    +0.000 OA
ATOM     28  H   UNL     1     -27.612   9.191  13.875  0.00  0.00    +0.000 HD
ENDBRANCH  24  27
ENDBRANCH  18  19
ENDBRANCH   4  18
TORSDOF 8
ENDMDL
MODEL 7
REMARK VINA RESULT:    -4.864      1.393      4.636
REMARK INTER + INTRA:          -8.549
REMARK INTER:                  -6.499
REMARK INTRA:                  -2.050
REMARK UNBOUND:                -1.694
REMARK  Name = ./IMPHY000001_3D.pdb
REMARK  10 active torsions:
REMARK  status: ('A' for Active; 'I' for Inactive)
REMARK    1  A    between atoms: O_3  and  C_19
REMARK    2  A    between atoms: O_3  and  C_25
REMARK    3  A    between atoms: O_4  and  C_20
REMARK    4  A    between atoms: O_4  and  C_26
REMARK    5  A    between atoms: O_5  and  C_23
REMARK    6  A    between atoms: O_6  and  C_24
REMARK    7  A    between atoms: C_7  and  C_10
REMARK    8  A    between atoms: C_8  and  C_11
REMARK    9  A    between atoms: C_10  and  C_13
REMARK   10  A    between atoms: C_11  and  C_14
REMARK                            x       y       z     vdW  Elec       q    Type
REMARK                         _______ _______ _______ _____ _____    ______ ____
ROOT
ATOM      1  O   UNL     1     -13.889   2.182   4.447  0.00  0.00    +0.000 OA
ATOM      2  O   UNL     1     -14.848   0.201   3.810  0.00  0.00    +0.000 OA
ATOM      3  C   UNL     1     -15.362   3.681   3.407  0.00  0.00    +0.000 C 
ATOM      4  C   UNL     1     -15.593   2.292   2.821  0.00  0.00    +0.000 C 
ATOM      5  C   UNL     1     -13.988   3.549   4.034  0.00  0.00    +0.000 C 
ATOM      6  C   UNL     1     -14.770   1.418   3.733  0.00  0.00    +0.000 C 
ENDROOT
BRANCH   3   7
ATOM      7  C   UNL     1     -16.417   4.018   4.465  0.00  0.00    +0.000 C 
BRANCH   7   8
ATOM      8  C   UNL     1     -17.809   4.028   3.889  0.00  0.00    +0.000 A 
ATOM      9  C   UNL     1     -18.720   3.064   4.290  0.00  0.00    +0.000 A 
ATOM     10  C   UNL     1     -18.157   5.002   2.964  0.00  0.00    +0.000 A 
ATOM     11  C   UNL     1     -20.008   3.073   3.756  0.00  0.00    +0.000 A 
ATOM     12  C   UNL     1     -19.445   5.011   2.430  0.00  0.00    +0.000 A 
ATOM     13  C   UNL     1     -20.371   4.047   2.827  0.00  0.00    +0.000 A 
BRANCH  11  14
ATOM     14  O   UNL     1     -20.904   2.124   4.150  0.00  0.00    +0.000 OA
ATOM     15  C   UNL     1     -20.708   0.802   3.653  0.00  0.00    +0.000 C 
ENDBRANCH  11  14
BRANCH  13  16
ATOM     16  O   UNL     1     -21.626   4.066   2.298  0.00  0.00    +0.000 OA
ATOM     17  H   UNL     1     -21.975   3.158   2.305  0.00  0.00    +0.000 HD
ENDBRANCH  13  16
ENDBRANCH   7   8
ENDBRANCH   3   7
BRANCH   4  18
ATOM     18  C   UNL     1     -15.092   2.159   1.389  0.00  0.00    +0.000 C 
BRANCH  18  19
ATOM     19  C   UNL     1     -16.199   2.352   0.386  0.00  0.00    +0.000 A 
ATOM     20  C   UNL     1     -17.481   1.918   0.694  0.00  0.00    +0.000 A 
ATOM     21  C   UNL     1     -15.921   2.958  -0.830  0.00  0.00    +0.000 A 
ATOM     22  C   UNL     1     -18.506   2.096  -0.234  0.00  0.00    +0.000 A 
ATOM     23  C   UNL     1     -16.946   3.135  -1.759  0.00  0.00    +0.000 A 
ATOM     24  C   UNL     1     -18.239   2.704  -1.461  0.00  0.00    +0.000 A 
BRANCH  22  25
ATOM     25  O   UNL     1     -19.764   1.670   0.068  0.00  0.00    +0.000 OA
ATOM     26  C   UNL     1     -20.005   0.265   0.007  0.00  0.00    +0.000 C 
ENDBRANCH  22  25
BRANCH  24  27
ATOM     27  O   UNL     1     -19.232   2.884  -2.375  0.00  0.00    +0.000 OA
ATOM     28  H   UNL     1     -19.031   2.347  -3.161  0.00  0.00    +0.000 HD
ENDBRANCH  24  27
ENDBRANCH  18  19
ENDBRANCH   4  18
TORSDOF 8
ENDMDL
MODEL 8
REMARK VINA RESULT:    -4.829     13.362     16.864
REMARK INTER + INTRA:          -8.499
REMARK INTER:                  -6.497
REMARK INTRA:                  -2.002
REMARK UNBOUND:                -1.694
REMARK  Name = ./IMPHY000001_3D.pdb
REMARK  10 active torsions:
REMARK  status: ('A' for Active; 'I' for Inactive)
REMARK    1  A    between atoms: O_3  and  C_19
REMARK    2  A    between atoms: O_3  and  C_25
REMARK    3  A    between atoms: O_4  and  C_20
REMARK    4  A    between atoms: O_4  and  C_26
REMARK    5  A    between atoms: O_5  and  C_23
REMARK    6  A    between atoms: O_6  and  C_24
REMARK    7  A    between atoms: C_7  and  C_10
REMARK    8  A    between atoms: C_8  and  C_11
REMARK    9  A    between atoms: C_10  and  C_13
REMARK   10  A    between atoms: C_11  and  C_14
REMARK                            x       y       z     vdW  Elec       q    Type
REMARK                         _______ _______ _______ _____ _____    ______ ____
ROOT
ATOM      1  O   UNL     1     -27.247  10.956  14.224  0.00  0.00    +0.000 OA
ATOM      2  O   UNL     1     -29.506  10.812  14.585  0.00  0.00    +0.000 OA
ATOM      3  C   UNL     1     -27.252  11.636  11.980  0.00  0.00    +0.000 C 
ATOM      4  C   UNL     1     -28.645  11.124  12.333  0.00  0.00    +0.000 C 
ATOM      5  C   UNL     1     -26.394  11.036  13.077  0.00  0.00    +0.000 C 
ATOM      6  C   UNL     1     -28.556  10.957  13.829  0.00  0.00    +0.000 C 
ENDROOT
BRANCH   3   7
ATOM      7  C   UNL     1     -27.198  13.165  12.016  0.00  0.00    +0.000 C 
BRANCH   7   8
ATOM      8  C   UNL     1     -27.724  13.777  10.743  0.00  0.00    +0.000 A 
ATOM      9  C   UNL     1     -28.651  14.806  10.814  0.00  0.00    +0.000 A 
ATOM     10  C   UNL     1     -27.273  13.301   9.521  0.00  0.00    +0.000 A 
ATOM     11  C   UNL     1     -29.138  15.371   9.636  0.00  0.00    +0.000 A 
ATOM     12  C   UNL     1     -27.761  13.866   8.343  0.00  0.00    +0.000 A 
ATOM     13  C   UNL     1     -28.693  14.902   8.400  0.00  0.00    +0.000 A 
BRANCH  11  14
ATOM     14  O   UNL     1     -30.051  16.382   9.705  0.00  0.00    +0.000 OA
ATOM     15  C   UNL     1     -30.653  16.625  10.973  0.00  0.00    +0.000 C 
ENDBRANCH  11  14
BRANCH  13  16
ATOM     16  O   UNL     1     -29.162  15.447   7.243  0.00  0.00    +0.000 OA
ATOM     17  H   UNL     1     -28.686  16.279   7.082  0.00  0.00    +0.000 HD
ENDBRANCH  13  16
ENDBRANCH   7   8
ENDBRANCH   3   7
BRANCH   4  18
ATOM     18  C   UNL     1     -28.972   9.787  11.683  0.00  0.00    +0.000 C 
BRANCH  18  19
ATOM     19  C   UNL     1     -28.776   9.824  10.190  0.00  0.00    +0.000 A 
ATOM     20  C   UNL     1     -27.740   9.098   9.620  0.00  0.00    +0.000 A 
ATOM     21  C   UNL     1     -29.634  10.583   9.408  0.00  0.00    +0.000 A 
ATOM     22  C   UNL     1     -27.559   9.133   8.238  0.00  0.00    +0.000 A 
ATOM     23  C   UNL     1     -29.452  10.618   8.025  0.00  0.00    +0.000 A 
ATOM     24  C   UNL     1     -28.414   9.893   7.441  0.00  0.00    +0.000 A 
BRANCH  22  25
ATOM     25  O   UNL     1     -26.541   8.422   7.678  0.00  0.00    +0.000 OA
ATOM     26  C   UNL     1     -26.299   7.116   8.199  0.00  0.00    +0.000 C 
ENDBRANCH  22  25
BRANCH  24  27
ATOM     27  O   UNL     1     -28.247   9.934   6.090  0.00  0.00    +0.000 OA
ATOM     28  H   UNL     1     -28.940  10.501   5.709  0.00  0.00    +0.000 HD
ENDBRANCH  24  27
ENDBRANCH  18  19
ENDBRANCH   4  18
TORSDOF 8
ENDMDL
MODEL 9
REMARK VINA RESULT:    -4.823     13.446     16.790
REMARK INTER + INTRA:          -8.491
REMARK INTER:                  -6.609
REMARK INTRA:                  -1.882
REMARK UNBOUND:                -1.694
REMARK  Name = ./IMPHY000001_3D.pdb
REMARK  10 active torsions:
REMARK  status: ('A' for Active; 'I' for Inactive)
REMARK    1  A    between atoms: O_3  and  C_19
REMARK    2  A    between atoms: O_3  and  C_25
REMARK    3  A    between atoms: O_4  and  C_20
REMARK    4  A    between atoms: O_4  and  C_26
REMARK    5  A    between atoms: O_5  and  C_23
REMARK    6  A    between atoms: O_6  and  C_24
REMARK    7  A    between atoms: C_7  and  C_10
REMARK    8  A    between atoms: C_8  and  C_11
REMARK    9  A    between atoms: C_10  and  C_13
REMARK   10  A    between atoms: C_11  and  C_14
REMARK                            x       y       z     vdW  Elec       q    Type
REMARK                         _______ _______ _______ _____ _____    ______ ____
ROOT
ATOM      1  O   UNL     1     -26.621   8.427   8.035  0.00  0.00    +0.000 OA
ATOM      2  O   UNL     1     -24.689   8.388   9.268  0.00  0.00    +0.000 OA
ATOM      3  C   UNL     1     -27.653  10.305   8.987  0.00  0.00    +0.000 C 
ATOM      4  C   UNL     1     -26.510   9.868   9.898  0.00  0.00    +0.000 C 
ATOM      5  C   UNL     1     -27.897   9.066   8.149  0.00  0.00    +0.000 C 
ATOM      6  C   UNL     1     -25.809   8.832   9.059  0.00  0.00    +0.000 C 
ENDROOT
BRANCH   3   7
ATOM      7  C   UNL     1     -27.238  11.488   8.107  0.00  0.00    +0.000 C 
BRANCH   7   8
ATOM      8  C   UNL     1     -27.743  12.799   8.653  0.00  0.00    +0.000 A 
ATOM      9  C   UNL     1     -28.566  12.802   9.769  0.00  0.00    +0.000 A 
ATOM     10  C   UNL     1     -27.377  13.983   8.030  0.00  0.00    +0.000 A 
ATOM     11  C   UNL     1     -29.034  14.015  10.273  0.00  0.00    +0.000 A 
ATOM     12  C   UNL     1     -27.845  15.196   8.534  0.00  0.00    +0.000 A 
ATOM     13  C   UNL     1     -28.673  15.212   9.656  0.00  0.00    +0.000 A 
BRANCH  11  14
ATOM     14  O   UNL     1     -29.844  14.017  11.369  0.00  0.00    +0.000 OA
ATOM     15  C   UNL     1     -31.165  13.508  11.199  0.00  0.00    +0.000 C 
ENDBRANCH  11  14
BRANCH  13  16
ATOM     16  O   UNL     1     -29.124  16.404  10.139  0.00  0.00    +0.000 OA
ATOM     17  H   UNL     1     -28.361  16.998  10.247  0.00  0.00    +0.000 HD
ENDBRANCH  13  16
ENDBRANCH   7   8
ENDBRANCH   3   7
BRANCH   4  18
ATOM     18  C   UNL     1     -26.993   9.239  11.198  0.00  0.00    +0.000 C 
BRANCH  18  19
ATOM     19  C   UNL     1     -27.434  10.278  12.196  0.00  0.00    +0.000 A 
ATOM     20  C   UNL     1     -26.509  11.191  12.682  0.00  0.00    +0.000 A 
ATOM     21  C   UNL     1     -28.755  10.305  12.615  0.00  0.00    +0.000 A 
ATOM     22  C   UNL     1     -26.916  12.153  13.606  0.00  0.00    +0.000 A 
ATOM     23  C   UNL     1     -29.163  11.266  13.540  0.00  0.00    +0.000 A 
ATOM     24  C   UNL     1     -28.243  12.190  14.036  0.00  0.00    +0.000 A 
BRANCH  22  25
ATOM     25  O   UNL     1     -26.009  13.048  14.084  0.00  0.00    +0.000 OA
ATOM     26  C   UNL     1     -25.192  12.626  15.175  0.00  0.00    +0.000 C 
ENDBRANCH  22  25
BRANCH  24  27
ATOM     27  O   UNL     1     -28.652  13.124  14.937  0.00  0.00    +0.000 OA
ATOM     28  H   UNL     1     -29.431  12.780  15.409  0.00  0.00    +0.000 HD
ENDBRANCH  24  27
ENDBRANCH  18  19
ENDBRANCH   4  18
TORSDOF 8
ENDMDL
