MODEL 1
REMARK VINA RESULT:    -5.734      0.000      0.000
REMARK INTER + INTRA:          -5.901
REMARK INTER:                  -5.901
REMARK INTRA:                   0.000
REMARK UNBOUND:                 0.000
REMARK  Name = ./IMPHY000003_3D.pdb
REMARK  4 active torsions:
REMARK  status: ('A' for Active; 'I' for Inactive)
REMARK    1  A    between atoms: O_2  and  C_13
REMARK    2  A    between atoms: C_3  and  C_12
REMARK    3  A    between atoms: C_5  and  C_15
REMARK    4  A    between atoms: C_5  and  C_16
REMARK                            x       y       z     vdW  Elec       q    Type
REMARK                         _______ _______ _______ _____ _____    ______ ____
ROOT
ATOM      1  O   UNL     1     -16.382   3.583  -0.964  0.00  0.00    +0.000 OA
ATOM      2  C   UNL     1     -15.703   3.626   2.782  0.00  0.00    +0.000 C 
ATOM      3  C   UNL     1     -16.533   4.621   3.685  0.00  0.00    +0.000 C 
ATOM      4  C   UNL     1     -16.148   4.693   5.206  0.00  0.00    +0.000 C 
ATOM      5  C   UNL     1     -15.999   4.057   1.305  0.00  0.00    +0.000 C 
ATOM      6  C   UNL     1     -14.192   3.796   3.069  0.00  0.00    +0.000 C 
ATOM      7  C   UNL     1     -14.608   4.788   5.346  0.00  0.00    +0.000 C 
ATOM      8  C   UNL     1     -18.056   4.491   3.406  0.00  0.00    +0.000 C 
ATOM      9  C   UNL     1     -13.848   3.730   4.554  0.00  0.00    +0.000 C 
ATOM     10  C   UNL     1     -17.456   4.211   1.006  0.00  0.00    +0.000 C 
ATOM     11  C   UNL     1     -16.087   2.143   2.997  0.00  0.00    +0.000 C 
ATOM     12  C   UNL     1     -15.592   3.137   0.157  0.00  0.00    +0.000 C 
ATOM     13  C   UNL     1     -18.394   4.387   1.942  0.00  0.00    +0.000 C 
ATOM     14  C   UNL     1     -16.677   3.529   6.067  0.00  0.00    +0.000 C 
ATOM     15  C   UNL     1     -16.743   5.986   5.823  0.00  0.00    +0.000 C 
ATOM     16  C   UNL     1     -17.662   4.004  -0.452  0.00  0.00    +0.000 C 
ENDROOT
BRANCH  12  17
ATOM     17  O   UNL     1     -14.206   3.272  -0.108  0.00  0.00    +0.000 OA
ATOM     18  H   UNL     1     -13.802   2.397   0.022  0.00  0.00    +0.000 HD
ENDBRANCH  12  17
TORSDOF 1
ENDMDL
MODEL 2
REMARK VINA RESULT:    -5.640      2.873      4.345
REMARK INTER + INTRA:          -5.805
REMARK INTER:                  -5.805
REMARK INTRA:                   0.000
REMARK UNBOUND:                 0.000
REMARK  Name = ./IMPHY000003_3D.pdb
REMARK  4 active torsions:
REMARK  status: ('A' for Active; 'I' for Inactive)
REMARK    1  A    between atoms: O_2  and  C_13
REMARK    2  A    between atoms: C_3  and  C_12
REMARK    3  A    between atoms: C_5  and  C_15
REMARK    4  A    between atoms: C_5  and  C_16
REMARK                            x       y       z     vdW  Elec       q    Type
REMARK                         _______ _______ _______ _____ _____    ______ ____
ROOT
ATOM      1  O   UNL     1     -16.526   1.656  -2.738  0.00  0.00    +0.000 OA
ATOM      2  C   UNL     1     -17.976   3.649   0.165  0.00  0.00    +0.000 C 
ATOM      3  C   UNL     1     -19.251   3.082   0.903  0.00  0.00    +0.000 C 
ATOM      4  C   UNL     1     -19.889   3.984   2.020  0.00  0.00    +0.000 C 
ATOM      5  C   UNL     1     -17.819   2.776  -1.127  0.00  0.00    +0.000 C 
ATOM      6  C   UNL     1     -18.218   5.122  -0.242  0.00  0.00    +0.000 C 
ATOM      7  C   UNL     1     -20.006   5.440   1.504  0.00  0.00    +0.000 C 
ATOM      8  C   UNL     1     -19.048   1.595   1.307  0.00  0.00    +0.000 C 
ATOM      9  C   UNL     1     -18.715   5.992   0.909  0.00  0.00    +0.000 C 
ATOM     10  C   UNL     1     -17.870   1.305  -0.867  0.00  0.00    +0.000 C 
ATOM     11  C   UNL     1     -16.691   3.575   1.024  0.00  0.00    +0.000 C 
ATOM     12  C   UNL     1     -16.526   2.854  -1.935  0.00  0.00    +0.000 C 
ATOM     13  C   UNL     1     -18.403   0.761   0.233  0.00  0.00    +0.000 C 
ATOM     14  C   UNL     1     -19.147   3.970   3.370  0.00  0.00    +0.000 C 
ATOM     15  C   UNL     1     -21.328   3.488   2.318  0.00  0.00    +0.000 C 
ATOM     16  C   UNL     1     -17.129   0.609  -1.952  0.00  0.00    +0.000 C 
ENDROOT
BRANCH  12  17
ATOM     17  O   UNL     1     -16.529   4.015  -2.750  0.00  0.00    +0.000 OA
ATOM     18  H   UNL     1     -16.319   3.730  -3.655  0.00  0.00    +0.000 HD
ENDBRANCH  12  17
TORSDOF 1
ENDMDL
MODEL 3
REMARK VINA RESULT:    -5.555      1.715      2.919
REMARK INTER + INTRA:          -5.717
REMARK INTER:                  -5.717
REMARK INTRA:                   0.000
REMARK UNBOUND:                 0.000
REMARK  Name = ./IMPHY000003_3D.pdb
REMARK  4 active torsions:
REMARK  status: ('A' for Active; 'I' for Inactive)
REMARK    1  A    between atoms: O_2  and  C_13
REMARK    2  A    between atoms: C_3  and  C_12
REMARK    3  A    between atoms: C_5  and  C_15
REMARK    4  A    between atoms: C_5  and  C_16
REMARK                            x       y       z     vdW  Elec       q    Type
REMARK                         _______ _______ _______ _____ _____    ______ ____
ROOT
ATOM      1  O   UNL     1     -20.007   5.167   0.625  0.00  0.00    +0.000 OA
ATOM      2  C   UNL     1     -16.663   3.690   1.689  0.00  0.00    +0.000 C 
ATOM      3  C   UNL     1     -16.103   4.053   3.121  0.00  0.00    +0.000 C 
ATOM      4  C   UNL     1     -14.671   3.518   3.482  0.00  0.00    +0.000 C 
ATOM      5  C   UNL     1     -17.866   4.665   1.453  0.00  0.00    +0.000 C 
ATOM      6  C   UNL     1     -15.576   3.952   0.620  0.00  0.00    +0.000 C 
ATOM      7  C   UNL     1     -13.707   3.782   2.299  0.00  0.00    +0.000 C 
ATOM      8  C   UNL     1     -17.179   3.820   4.217  0.00  0.00    +0.000 C 
ATOM      9  C   UNL     1     -14.235   3.305   0.951  0.00  0.00    +0.000 C 
ATOM     10  C   UNL     1     -18.839   4.705   2.587  0.00  0.00    +0.000 C 
ATOM     11  C   UNL     1     -17.131   2.220   1.573  0.00  0.00    +0.000 C 
ATOM     12  C   UNL     1     -18.826   4.409   0.293  0.00  0.00    +0.000 C 
ATOM     13  C   UNL     1     -18.549   4.309   3.831  0.00  0.00    +0.000 C 
ATOM     14  C   UNL     1     -14.612   2.030   3.877  0.00  0.00    +0.000 C 
ATOM     15  C   UNL     1     -14.124   4.306   4.701  0.00  0.00    +0.000 C 
ATOM     16  C   UNL     1     -20.165   5.120   2.056  0.00  0.00    +0.000 C 
ENDROOT
BRANCH  12  17
ATOM     17  O   UNL     1     -18.253   4.860  -0.923  0.00  0.00    +0.000 OA
ATOM     18  H   UNL     1     -17.564   4.221  -1.170  0.00  0.00    +0.000 HD
ENDBRANCH  12  17
TORSDOF 1
ENDMDL
MODEL 4
REMARK VINA RESULT:    -5.323      2.987      5.447
REMARK INTER + INTRA:          -5.478
REMARK INTER:                  -5.478
REMARK INTRA:                   0.000
REMARK UNBOUND:                 0.000
REMARK  Name = ./IMPHY000003_3D.pdb
REMARK  4 active torsions:
REMARK  status: ('A' for Active; 'I' for Inactive)
REMARK    1  A    between atoms: O_2  and  C_13
REMARK    2  A    between atoms: C_3  and  C_12
REMARK    3  A    between atoms: C_5  and  C_15
REMARK    4  A    between atoms: C_5  and  C_16
REMARK                            x       y       z     vdW  Elec       q    Type
REMARK                         _______ _______ _______ _____ _____    ______ ____
ROOT
ATOM      1  O   UNL     1     -15.109   5.562   7.600  0.00  0.00    +0.000 OA
ATOM      2  C   UNL     1     -16.738   4.255   4.416  0.00  0.00    +0.000 C 
ATOM      3  C   UNL     1     -15.814   3.932   3.177  0.00  0.00    +0.000 C 
ATOM      4  C   UNL     1     -16.530   3.503   1.846  0.00  0.00    +0.000 C 
ATOM      5  C   UNL     1     -15.826   5.031   5.426  0.00  0.00    +0.000 C 
ATOM      6  C   UNL     1     -17.904   5.171   3.974  0.00  0.00    +0.000 C 
ATOM      7  C   UNL     1     -17.715   4.460   1.566  0.00  0.00    +0.000 C 
ATOM      8  C   UNL     1     -14.619   3.029   3.592  0.00  0.00    +0.000 C 
ATOM      9  C   UNL     1     -18.653   4.648   2.753  0.00  0.00    +0.000 C 
ATOM     10  C   UNL     1     -14.519   4.357   5.695  0.00  0.00    +0.000 C 
ATOM     11  C   UNL     1     -17.326   2.989   5.085  0.00  0.00    +0.000 C 
ATOM     12  C   UNL     1     -16.306   5.252   6.858  0.00  0.00    +0.000 C 
ATOM     13  C   UNL     1     -13.974   3.440   4.888  0.00  0.00    +0.000 C 
ATOM     14  C   UNL     1     -17.022   2.043   1.813  0.00  0.00    +0.000 C 
ATOM     15  C   UNL     1     -15.538   3.647   0.663  0.00  0.00    +0.000 C 
ATOM     16  C   UNL     1     -14.035   4.784   7.035  0.00  0.00    +0.000 C 
ENDROOT
BRANCH  12  17
ATOM     17  O   UNL     1     -17.229   6.328   6.903  0.00  0.00    +0.000 OA
ATOM     18  H   UNL     1     -18.091   5.978   6.619  0.00  0.00    +0.000 HD
ENDBRANCH  12  17
TORSDOF 1
ENDMDL
MODEL 5
REMARK VINA RESULT:    -5.303      2.756      5.275
REMARK INTER + INTRA:          -5.458
REMARK INTER:                  -5.458
REMARK INTRA:                   0.000
REMARK UNBOUND:                 0.000
REMARK  Name = ./IMPHY000003_3D.pdb
REMARK  4 active torsions:
REMARK  status: ('A' for Active; 'I' for Inactive)
REMARK    1  A    between atoms: O_2  and  C_13
REMARK    2  A    between atoms: C_3  and  C_12
REMARK    3  A    between atoms: C_5  and  C_15
REMARK    4  A    between atoms: C_5  and  C_16
REMARK                            x       y       z     vdW  Elec       q    Type
REMARK                         _______ _______ _______ _____ _____    ______ ____
ROOT
ATOM      1  O   UNL     1     -15.364   5.064   6.509  0.00  0.00    +0.000 OA
ATOM      2  C   UNL     1     -17.673   4.362   3.563  0.00  0.00    +0.000 C 
ATOM      3  C   UNL     1     -17.030   4.168   2.134  0.00  0.00    +0.000 C 
ATOM      4  C   UNL     1     -18.018   3.994   0.926  0.00  0.00    +0.000 C 
ATOM      5  C   UNL     1     -16.520   4.915   4.468  0.00  0.00    +0.000 C 
ATOM      6  C   UNL     1     -18.809   5.410   3.489  0.00  0.00    +0.000 C 
ATOM      7  C   UNL     1     -19.140   5.059   1.017  0.00  0.00    +0.000 C 
ATOM      8  C   UNL     1     -15.870   3.136   2.179  0.00  0.00    +0.000 C 
ATOM      9  C   UNL     1     -19.818   5.128   2.380  0.00  0.00    +0.000 C 
ATOM     10  C   UNL     1     -15.255   4.123   4.380  0.00  0.00    +0.000 C 
ATOM     11  C   UNL     1     -18.243   3.053   4.158  0.00  0.00    +0.000 C 
ATOM     12  C   UNL     1     -16.703   4.949   5.983  0.00  0.00    +0.000 C 
ATOM     13  C   UNL     1     -14.959   3.303   3.366  0.00  0.00    +0.000 C 
ATOM     14  C   UNL     1     -18.644   2.591   0.794  0.00  0.00    +0.000 C 
ATOM     15  C   UNL     1     -17.254   4.248  -0.400  0.00  0.00    +0.000 C 
ATOM     16  C   UNL     1     -14.493   4.309   5.643  0.00  0.00    +0.000 C 
ENDROOT
BRANCH  12  17
ATOM     17  O   UNL     1     -17.495   6.066   6.354  0.00  0.00    +0.000 OA
ATOM     18  H   UNL     1     -18.334   5.995   5.868  0.00  0.00    +0.000 HD
ENDBRANCH  12  17
TORSDOF 1
ENDMDL
MODEL 6
REMARK VINA RESULT:    -5.037     13.270     15.512
REMARK INTER + INTRA:          -5.184
REMARK INTER:                  -5.184
REMARK INTRA:                   0.000
REMARK UNBOUND:                 0.000
REMARK  Name = ./IMPHY000003_3D.pdb
REMARK  4 active torsions:
REMARK  status: ('A' for Active; 'I' for Inactive)
REMARK    1  A    between atoms: O_2  and  C_13
REMARK    2  A    between atoms: C_3  and  C_12
REMARK    3  A    between atoms: C_5  and  C_15
REMARK    4  A    between atoms: C_5  and  C_16
REMARK                            x       y       z     vdW  Elec       q    Type
REMARK                         _______ _______ _______ _____ _____    ______ ____
ROOT
ATOM      1  O   UNL     1     -27.883  14.835  10.175  0.00  0.00    +0.000 OA
ATOM      2  C   UNL     1     -27.552  11.217   9.033  0.00  0.00    +0.000 C 
ATOM      3  C   UNL     1     -26.649  10.240   9.884  0.00  0.00    +0.000 C 
ATOM      4  C   UNL     1     -26.445   8.788   9.321  0.00  0.00    +0.000 C 
ATOM      5  C   UNL     1     -27.245  12.652   9.581  0.00  0.00    +0.000 C 
ATOM      6  C   UNL     1     -27.145  11.143   7.542  0.00  0.00    +0.000 C 
ATOM      7  C   UNL     1     -26.114   8.860   7.810  0.00  0.00    +0.000 C 
ATOM      8  C   UNL     1     -27.020  10.307  11.391  0.00  0.00    +0.000 C 
ATOM      9  C   UNL     1     -27.084   9.717   7.004  0.00  0.00    +0.000 C 
ATOM     10  C   UNL     1     -27.325  12.757  11.070  0.00  0.00    +0.000 C 
ATOM     11  C   UNL     1     -29.064  10.908   9.151  0.00  0.00    +0.000 C 
ATOM     12  C   UNL     1     -28.150  13.818   9.187  0.00  0.00    +0.000 C 
ATOM     13  C   UNL     1     -27.246  11.707  11.896  0.00  0.00    +0.000 C 
ATOM     14  C   UNL     1     -27.630   7.829   9.548  0.00  0.00    +0.000 C 
ATOM     15  C   UNL     1     -25.226   8.135  10.025  0.00  0.00    +0.000 C 
ATOM     16  C   UNL     1     -27.634  14.167  11.428  0.00  0.00    +0.000 C 
ENDROOT
BRANCH  12  17
ATOM     17  O   UNL     1     -27.822  14.272   7.885  0.00  0.00    +0.000 OA
ATOM     18  H   UNL     1     -28.654  14.340   7.387  0.00  0.00    +0.000 HD
ENDBRANCH  12  17
TORSDOF 1
ENDMDL
MODEL 7
REMARK VINA RESULT:    -4.997     13.094     15.238
REMARK INTER + INTRA:          -5.143
REMARK INTER:                  -5.143
REMARK INTRA:                   0.000
REMARK UNBOUND:                 0.000
REMARK  Name = ./IMPHY000003_3D.pdb
REMARK  4 active torsions:
REMARK  status: ('A' for Active; 'I' for Inactive)
REMARK    1  A    between atoms: O_2  and  C_13
REMARK    2  A    between atoms: C_3  and  C_12
REMARK    3  A    between atoms: C_5  and  C_15
REMARK    4  A    between atoms: C_5  and  C_16
REMARK                            x       y       z     vdW  Elec       q    Type
REMARK                         _______ _______ _______ _____ _____    ______ ____
ROOT
ATOM      1  O   UNL     1     -25.646   7.488  10.193  0.00  0.00    +0.000 OA
ATOM      2  C   UNL     1     -27.438  10.847  10.259  0.00  0.00    +0.000 C 
ATOM      3  C   UNL     1     -27.274  11.811   9.019  0.00  0.00    +0.000 C 
ATOM      4  C   UNL     1     -27.934  13.232   9.129  0.00  0.00    +0.000 C 
ATOM      5  C   UNL     1     -26.370   9.720  10.055  0.00  0.00    +0.000 C 
ATOM      6  C   UNL     1     -27.126  11.616  11.565  0.00  0.00    +0.000 C 
ATOM      7  C   UNL     1     -27.599  13.853  10.508  0.00  0.00    +0.000 C 
ATOM      8  C   UNL     1     -27.562  11.062   7.688  0.00  0.00    +0.000 C 
ATOM      9  C   UNL     1     -27.888  12.932  11.688  0.00  0.00    +0.000 C 
ATOM     10  C   UNL     1     -26.398   9.104   8.693  0.00  0.00    +0.000 C 
ATOM     11  C   UNL     1     -28.854  10.233  10.370  0.00  0.00    +0.000 C 
ATOM     12  C   UNL     1     -26.435   8.458  10.913  0.00  0.00    +0.000 C 
ATOM     13  C   UNL     1     -26.948   9.689   7.623  0.00  0.00    +0.000 C 
ATOM     14  C   UNL     1     -29.458  13.262   8.902  0.00  0.00    +0.000 C 
ATOM     15  C   UNL     1     -27.323  14.163   8.049  0.00  0.00    +0.000 C 
ATOM     16  C   UNL     1     -25.844   7.727   8.786  0.00  0.00    +0.000 C 
ENDROOT
BRANCH  12  17
ATOM     17  O   UNL     1     -25.886   8.712  12.196  0.00  0.00    +0.000 OA
ATOM     18  H   UNL     1     -26.590   9.110  12.735  0.00  0.00    +0.000 HD
ENDBRANCH  12  17
TORSDOF 1
ENDMDL
