MODEL 1
REMARK VINA RESULT:    -5.515      0.000      0.000
REMARK INTER + INTRA:          -5.515
REMARK INTER:                  -5.515
REMARK INTRA:                   0.000
REMARK UNBOUND:                 0.000
REMARK  Name = ./IMPHY000006_3D.pdb
REMARK  2 active torsions:
REMARK  status: ('A' for Active; 'I' for Inactive)
REMARK    1  A    between atoms: C_3  and  C_11
REMARK    2  A    between atoms: C_5  and  C_12
REMARK                            x       y       z     vdW  Elec       q    Type
REMARK                         _______ _______ _______ _____ _____    ______ ____
ROOT
ATOM      1  C   UNL     1     -27.360  12.153  10.188  0.00  0.00    +0.000 A 
ATOM      2  C   UNL     1     -27.394  12.444   8.803  0.00  0.00    +0.000 A 
ATOM      3  C   UNL     1     -27.196  10.821  10.605  0.00  0.00    +0.000 A 
ATOM      4  C   UNL     1     -27.558  13.776   8.386  0.00  0.00    +0.000 A 
ATOM      5  C   UNL     1     -27.686  14.804   9.320  0.00  0.00    +0.000 A 
ATOM      6  C   UNL     1     -27.490  13.200  11.114  0.00  0.00    +0.000 A 
ATOM      7  C   UNL     1     -27.264  11.397   7.877  0.00  0.00    +0.000 A 
ATOM      8  C   UNL     1     -27.652  14.516  10.681  0.00  0.00    +0.000 A 
ATOM      9  C   UNL     1     -27.069   9.793   9.671  0.00  0.00    +0.000 A 
ATOM     10  C   UNL     1     -27.102  10.081   8.310  0.00  0.00    +0.000 A 
ATOM     11  C   UNL     1     -27.151  10.444  12.053  0.00  0.00    +0.000 C 
ATOM     12  C   UNL     1     -27.859  16.212   8.859  0.00  0.00    +0.000 C 
ENDROOT
TORSDOF 0
ENDMDL
MODEL 2
REMARK VINA RESULT:    -5.504      0.784      3.939
REMARK INTER + INTRA:          -5.504
REMARK INTER:                  -5.504
REMARK INTRA:                   0.000
REMARK UNBOUND:                 0.000
REMARK  Name = ./IMPHY000006_3D.pdb
REMARK  2 active torsions:
REMARK  status: ('A' for Active; 'I' for Inactive)
REMARK    1  A    between atoms: C_3  and  C_11
REMARK    2  A    between atoms: C_5  and  C_12
REMARK                            x       y       z     vdW  Elec       q    Type
REMARK                         _______ _______ _______ _____ _____    ______ ____
ROOT
ATOM      1  C   UNL     1     -27.441  12.797  10.177  0.00  0.00    +0.000 A 
ATOM      2  C   UNL     1     -27.421  12.785   8.762  0.00  0.00    +0.000 A 
ATOM      3  C   UNL     1     -27.581  14.021  10.851  0.00  0.00    +0.000 A 
ATOM      4  C   UNL     1     -27.280  11.560   8.088  0.00  0.00    +0.000 A 
ATOM      5  C   UNL     1     -27.161  10.366   8.799  0.00  0.00    +0.000 A 
ATOM      6  C   UNL     1     -27.320  11.585  10.876  0.00  0.00    +0.000 A 
ATOM      7  C   UNL     1     -27.541  13.996   8.063  0.00  0.00    +0.000 A 
ATOM      8  C   UNL     1     -27.181  10.379  10.190  0.00  0.00    +0.000 A 
ATOM      9  C   UNL     1     -27.700  15.216  10.140  0.00  0.00    +0.000 A 
ATOM     10  C   UNL     1     -27.680  15.203   8.749  0.00  0.00    +0.000 A 
ATOM     11  C   UNL     1     -27.611  14.105  12.346  0.00  0.00    +0.000 C 
ATOM     12  C   UNL     1     -27.013   9.075   8.066  0.00  0.00    +0.000 C 
ENDROOT
TORSDOF 0
ENDMDL
MODEL 3
REMARK VINA RESULT:    -5.396      0.660      2.495
REMARK INTER + INTRA:          -5.396
REMARK INTER:                  -5.396
REMARK INTRA:                   0.000
REMARK UNBOUND:                 0.000
REMARK  Name = ./IMPHY000006_3D.pdb
REMARK  2 active torsions:
REMARK  status: ('A' for Active; 'I' for Inactive)
REMARK    1  A    between atoms: C_3  and  C_11
REMARK    2  A    between atoms: C_5  and  C_12
REMARK                            x       y       z     vdW  Elec       q    Type
REMARK                         _______ _______ _______ _____ _____    ______ ____
ROOT
ATOM      1  C   UNL     1     -27.342  12.225   9.686  0.00  0.00    +0.000 A 
ATOM      2  C   UNL     1     -27.412  13.113  10.786  0.00  0.00    +0.000 A 
ATOM      3  C   UNL     1     -27.164  10.852   9.923  0.00  0.00    +0.000 A 
ATOM      4  C   UNL     1     -27.589  14.486  10.550  0.00  0.00    +0.000 A 
ATOM      5  C   UNL     1     -27.697  14.976   9.248  0.00  0.00    +0.000 A 
ATOM      6  C   UNL     1     -27.452  12.736   8.383  0.00  0.00    +0.000 A 
ATOM      7  C   UNL     1     -27.302  12.602  12.089  0.00  0.00    +0.000 A 
ATOM      8  C   UNL     1     -27.628  14.103   8.167  0.00  0.00    +0.000 A 
ATOM      9  C   UNL     1     -27.057  10.362  11.225  0.00  0.00    +0.000 A 
ATOM     10  C   UNL     1     -27.125  11.236  12.305  0.00  0.00    +0.000 A 
ATOM     11  C   UNL     1     -27.083   9.858   8.806  0.00  0.00    +0.000 C 
ATOM     12  C   UNL     1     -27.885  16.438   9.015  0.00  0.00    +0.000 C 
ENDROOT
TORSDOF 0
ENDMDL
MODEL 4
REMARK VINA RESULT:    -5.170      1.516      3.567
REMARK INTER + INTRA:          -5.170
REMARK INTER:                  -5.170
REMARK INTRA:                   0.000
REMARK UNBOUND:                 0.000
REMARK  Name = ./IMPHY000006_3D.pdb
REMARK  2 active torsions:
REMARK  status: ('A' for Active; 'I' for Inactive)
REMARK    1  A    between atoms: C_3  and  C_11
REMARK    2  A    between atoms: C_5  and  C_12
REMARK                            x       y       z     vdW  Elec       q    Type
REMARK                         _______ _______ _______ _____ _____    ______ ____
ROOT
ATOM      1  C   UNL     1     -27.394  12.637  10.518  0.00  0.00    +0.000 A 
ATOM      2  C   UNL     1     -27.498  14.020  10.797  0.00  0.00    +0.000 A 
ATOM      3  C   UNL     1     -27.404  12.203   9.182  0.00  0.00    +0.000 A 
ATOM      4  C   UNL     1     -27.488  14.454  12.134  0.00  0.00    +0.000 A 
ATOM      5  C   UNL     1     -27.378  13.536  13.179  0.00  0.00    +0.000 A 
ATOM      6  C   UNL     1     -27.284  11.727  11.582  0.00  0.00    +0.000 A 
ATOM      7  C   UNL     1     -27.608  14.930   9.733  0.00  0.00    +0.000 A 
ATOM      8  C   UNL     1     -27.276  12.176  12.903  0.00  0.00    +0.000 A 
ATOM      9  C   UNL     1     -27.514  13.121   8.137  0.00  0.00    +0.000 A 
ATOM     10  C   UNL     1     -27.616  14.481   8.412  0.00  0.00    +0.000 A 
ATOM     11  C   UNL     1     -27.297  10.755   8.816  0.00  0.00    +0.000 C 
ATOM     12  C   UNL     1     -27.369  14.014  14.592  0.00  0.00    +0.000 C 
ENDROOT
TORSDOF 0
ENDMDL
MODEL 5
REMARK VINA RESULT:    -5.158      0.865      4.651
REMARK INTER + INTRA:          -5.158
REMARK INTER:                  -5.158
REMARK INTRA:                   0.000
REMARK UNBOUND:                 0.000
REMARK  Name = ./IMPHY000006_3D.pdb
REMARK  2 active torsions:
REMARK  status: ('A' for Active; 'I' for Inactive)
REMARK    1  A    between atoms: C_3  and  C_11
REMARK    2  A    between atoms: C_5  and  C_12
REMARK                            x       y       z     vdW  Elec       q    Type
REMARK                         _______ _______ _______ _____ _____    ______ ____
ROOT
ATOM      1  C   UNL     1     -27.397  12.494   9.324  0.00  0.00    +0.000 A 
ATOM      2  C   UNL     1     -27.286  11.823  10.565  0.00  0.00    +0.000 A 
ATOM      3  C   UNL     1     -27.556  13.890   9.310  0.00  0.00    +0.000 A 
ATOM      4  C   UNL     1     -27.127  10.427  10.579  0.00  0.00    +0.000 A 
ATOM      5  C   UNL     1     -27.079   9.704   9.387  0.00  0.00    +0.000 A 
ATOM      6  C   UNL     1     -27.347  11.751   8.134  0.00  0.00    +0.000 A 
ATOM      7  C   UNL     1     -27.336  12.566  11.755  0.00  0.00    +0.000 A 
ATOM      8  C   UNL     1     -27.189  10.365   8.167  0.00  0.00    +0.000 A 
ATOM      9  C   UNL     1     -27.604  14.613  10.503  0.00  0.00    +0.000 A 
ATOM     10  C   UNL     1     -27.494  13.952  11.723  0.00  0.00    +0.000 A 
ATOM     11  C   UNL     1     -27.679  14.662   8.033  0.00  0.00    +0.000 C 
ATOM     12  C   UNL     1     -26.910   8.223   9.420  0.00  0.00    +0.000 C 
ENDROOT
TORSDOF 0
ENDMDL
MODEL 6
REMARK VINA RESULT:    -5.074      1.135      4.145
REMARK INTER + INTRA:          -5.074
REMARK INTER:                  -5.074
REMARK INTRA:                   0.000
REMARK UNBOUND:                 0.000
REMARK  Name = ./IMPHY000006_3D.pdb
REMARK  2 active torsions:
REMARK  status: ('A' for Active; 'I' for Inactive)
REMARK    1  A    between atoms: C_3  and  C_11
REMARK    2  A    between atoms: C_5  and  C_12
REMARK                            x       y       z     vdW  Elec       q    Type
REMARK                         _______ _______ _______ _____ _____    ______ ____
ROOT
ATOM      1  C   UNL     1     -28.323  13.643  10.145  0.00  0.00    +0.000 A 
ATOM      2  C   UNL     1     -27.809  13.548   8.829  0.00  0.00    +0.000 A 
ATOM      3  C   UNL     1     -28.803  14.880  10.607  0.00  0.00    +0.000 A 
ATOM      4  C   UNL     1     -27.330  12.312   8.366  0.00  0.00    +0.000 A 
ATOM      5  C   UNL     1     -27.356  11.185   9.189  0.00  0.00    +0.000 A 
ATOM      6  C   UNL     1     -28.342  12.499  10.958  0.00  0.00    +0.000 A 
ATOM      7  C   UNL     1     -27.790  14.692   8.015  0.00  0.00    +0.000 A 
ATOM      8  C   UNL     1     -27.861  11.279  10.482  0.00  0.00    +0.000 A 
ATOM      9  C   UNL     1     -28.776  16.006   9.784  0.00  0.00    +0.000 A 
ATOM     10  C   UNL     1     -28.271  15.912   8.491  0.00  0.00    +0.000 A 
ATOM     11  C   UNL     1     -29.360  15.049  11.987  0.00  0.00    +0.000 C 
ATOM     12  C   UNL     1     -26.843   9.880   8.681  0.00  0.00    +0.000 C 
ENDROOT
TORSDOF 0
ENDMDL
MODEL 7
REMARK VINA RESULT:    -4.958      1.242      3.041
REMARK INTER + INTRA:          -4.958
REMARK INTER:                  -4.958
REMARK INTRA:                   0.000
REMARK UNBOUND:                 0.000
REMARK  Name = ./IMPHY000006_3D.pdb
REMARK  2 active torsions:
REMARK  status: ('A' for Active; 'I' for Inactive)
REMARK    1  A    between atoms: C_3  and  C_11
REMARK    2  A    between atoms: C_5  and  C_12
REMARK                            x       y       z     vdW  Elec       q    Type
REMARK                         _______ _______ _______ _____ _____    ______ ____
ROOT
ATOM      1  C   UNL     1     -27.305  12.465  10.824  0.00  0.00    +0.000 A 
ATOM      2  C   UNL     1     -27.526  13.805  11.222  0.00  0.00    +0.000 A 
ATOM      3  C   UNL     1     -26.989  11.503  11.798  0.00  0.00    +0.000 A 
ATOM      4  C   UNL     1     -27.842  14.767  10.248  0.00  0.00    +0.000 A 
ATOM      5  C   UNL     1     -27.940  14.412   8.902  0.00  0.00    +0.000 A 
ATOM      6  C   UNL     1     -27.408  12.126   9.466  0.00  0.00    +0.000 A 
ATOM      7  C   UNL     1     -27.423  14.145  12.581  0.00  0.00    +0.000 A 
ATOM      8  C   UNL     1     -27.723  13.094   8.512  0.00  0.00    +0.000 A 
ATOM      9  C   UNL     1     -26.891  11.858  13.144  0.00  0.00    +0.000 A 
ATOM     10  C   UNL     1     -27.108  13.176  13.534  0.00  0.00    +0.000 A 
ATOM     11  C   UNL     1     -26.745  10.068  11.446  0.00  0.00    +0.000 C 
ATOM     12  C   UNL     1     -28.277  15.447   7.882  0.00  0.00    +0.000 C 
ENDROOT
TORSDOF 0
ENDMDL
MODEL 8
REMARK VINA RESULT:    -4.879      2.307      3.581
REMARK INTER + INTRA:          -4.879
REMARK INTER:                  -4.879
REMARK INTRA:                   0.000
REMARK UNBOUND:                 0.000
REMARK  Name = ./IMPHY000006_3D.pdb
REMARK  2 active torsions:
REMARK  status: ('A' for Active; 'I' for Inactive)
REMARK    1  A    between atoms: C_3  and  C_11
REMARK    2  A    between atoms: C_5  and  C_12
REMARK                            x       y       z     vdW  Elec       q    Type
REMARK                         _______ _______ _______ _____ _____    ______ ____
ROOT
ATOM      1  C   UNL     1     -28.748  14.418  10.570  0.00  0.00    +0.000 A 
ATOM      2  C   UNL     1     -29.066  15.468   9.676  0.00  0.00    +0.000 A 
ATOM      3  C   UNL     1     -27.837  13.426  10.169  0.00  0.00    +0.000 A 
ATOM      4  C   UNL     1     -29.977  16.459  10.077  0.00  0.00    +0.000 A 
ATOM      5  C   UNL     1     -30.565  16.416  11.341  0.00  0.00    +0.000 A 
ATOM      6  C   UNL     1     -29.350  14.390  11.838  0.00  0.00    +0.000 A 
ATOM      7  C   UNL     1     -28.464  15.496   8.408  0.00  0.00    +0.000 A 
ATOM      8  C   UNL     1     -30.252  15.383  12.220  0.00  0.00    +0.000 A 
ATOM      9  C   UNL     1     -27.249  13.470   8.905  0.00  0.00    +0.000 A 
ATOM     10  C   UNL     1     -27.562  14.503   8.026  0.00  0.00    +0.000 A 
ATOM     11  C   UNL     1     -27.456  12.289  11.066  0.00  0.00    +0.000 C 
ATOM     12  C   UNL     1     -31.530  17.477  11.750  0.00  0.00    +0.000 C 
ENDROOT
TORSDOF 0
ENDMDL
