MODEL 1
REMARK VINA RESULT:    -4.776      0.000      0.000
REMARK INTER + INTRA:          -6.256
REMARK INTER:                  -6.032
REMARK INTRA:                  -0.224
REMARK UNBOUND:                -0.224
REMARK  Name = ./IMPHY000005_3D.pdb
REMARK  7 active torsions:
REMARK  status: ('A' for Active; 'I' for Inactive)
REMARK    1  A    between atoms: O_2  and  C_14
REMARK    2  A    between atoms: N_3  and  C_8
REMARK    3  A    between atoms: C_7  and  C_13
REMARK    4  A    between atoms: C_8  and  C_11
REMARK    5  A    between atoms: C_9  and  C_10
REMARK    6  A    between atoms: C_10  and  C_14
REMARK    7  A    between atoms: C_17  and  C_18
REMARK                            x       y       z     vdW  Elec       q    Type
REMARK                         _______ _______ _______ _____ _____    ______ ____
ROOT
ATOM      1  C   UNL     1     -17.544   3.329   4.512  0.00  0.00    +0.000 C 
ENDROOT
BRANCH   1   5
ATOM      2  N   UNL     1     -15.530   5.654   6.709  0.00  0.00    +0.000 NA
ATOM      3  N   UNL     1     -14.578   3.443   6.815  0.00  0.00    +0.000 NA
ATOM      4  N   UNL     1     -17.438   6.070   5.364  0.00  0.00    +0.000 N 
ATOM      5  C   UNL     1     -16.516   3.855   5.448  0.00  0.00    +0.000 A 
ATOM      6  C   UNL     1     -16.461   5.172   5.859  0.00  0.00    +0.000 A 
ATOM      7  C   UNL     1     -15.538   3.028   5.962  0.00  0.00    +0.000 A 
ATOM      8  C   UNL     1     -14.632   4.748   7.142  0.00  0.00    +0.000 A 
ATOM      9  C   UNL     1     -13.586   5.243   8.082  0.00  0.00    +0.000 C 
ATOM     10  H   UNL     1     -17.773   5.960   4.417  0.00  0.00    +0.000 HD
ATOM     11  H   UNL     1     -17.380   7.019   5.713  0.00  0.00    +0.000 HD
ENDBRANCH   1   5
BRANCH   1  13
ATOM     12  S   UNL     1     -15.756   3.585   1.056  0.00  0.00    +0.000 S 
ATOM     13  N   UNL     1     -17.135   3.564   3.125  0.00  0.00    +0.000 N 
ATOM     14  C   UNL     1     -17.943   4.175   2.210  0.00  0.00    +0.000 A 
ATOM     15  C   UNL     1     -17.331   4.275   0.984  0.00  0.00    +0.000 A 
ATOM     16  C   UNL     1     -15.957   3.187   2.707  0.00  0.00    +0.000 A 
ATOM     17  C   UNL     1     -19.282   4.623   2.623  0.00  0.00    +0.000 C 
BRANCH  15  18
ATOM     18  C   UNL     1     -17.826   4.856  -0.280  0.00  0.00    +0.000 C 
BRANCH  18  19
ATOM     19  C   UNL     1     -17.841   3.851  -1.445  0.00  0.00    +0.000 C 
BRANCH  19  20
ATOM     20  O   UNL     1     -18.417   4.442  -2.604  0.00  0.00    +0.000 OA
ATOM     21  H   UNL     1     -17.708   4.542  -3.263  0.00  0.00    +0.000 HD
ENDBRANCH  19  20
ENDBRANCH  18  19
ENDBRANCH  15  18
ENDBRANCH   1  13
TORSDOF 5
ENDMDL
MODEL 2
REMARK VINA RESULT:    -4.611      1.556      1.962
REMARK INTER + INTRA:          -6.048
REMARK INTER:                  -5.588
REMARK INTRA:                  -0.460
REMARK UNBOUND:                -0.224
REMARK  Name = ./IMPHY000005_3D.pdb
REMARK  7 active torsions:
REMARK  status: ('A' for Active; 'I' for Inactive)
REMARK    1  A    between atoms: O_2  and  C_14
REMARK    2  A    between atoms: N_3  and  C_8
REMARK    3  A    between atoms: C_7  and  C_13
REMARK    4  A    between atoms: C_8  and  C_11
REMARK    5  A    between atoms: C_9  and  C_10
REMARK    6  A    between atoms: C_10  and  C_14
REMARK    7  A    between atoms: C_17  and  C_18
REMARK                            x       y       z     vdW  Elec       q    Type
REMARK                         _______ _______ _______ _____ _____    ______ ____
ROOT
ATOM      1  C   UNL     1     -17.087   2.824   3.999  0.00  0.00    +0.000 C 
ENDROOT
BRANCH   1   5
ATOM      2  N   UNL     1     -16.203   4.563   7.235  0.00  0.00    +0.000 NA
ATOM      3  N   UNL     1     -14.520   5.062   5.584  0.00  0.00    +0.000 NA
ATOM      4  N   UNL     1     -18.042   3.171   6.685  0.00  0.00    +0.000 N 
ATOM      5  C   UNL     1     -16.383   3.647   5.016  0.00  0.00    +0.000 A 
ATOM      6  C   UNL     1     -16.838   3.817   6.308  0.00  0.00    +0.000 A 
ATOM      7  C   UNL     1     -15.208   4.300   4.707  0.00  0.00    +0.000 A 
ATOM      8  C   UNL     1     -15.066   5.148   6.812  0.00  0.00    +0.000 A 
ATOM      9  C   UNL     1     -14.334   5.982   7.808  0.00  0.00    +0.000 C 
ATOM     10  H   UNL     1     -18.785   3.081   6.006  0.00  0.00    +0.000 HD
ATOM     11  H   UNL     1     -18.325   3.298   7.649  0.00  0.00    +0.000 HD
ENDBRANCH   1   5
BRANCH   1  13
ATOM     12  S   UNL     1     -19.266   5.292   1.908  0.00  0.00    +0.000 S 
ATOM     13  N   UNL     1     -17.704   3.685   2.987  0.00  0.00    +0.000 N 
ATOM     14  C   UNL     1     -17.213   3.804   1.719  0.00  0.00    +0.000 A 
ATOM     15  C   UNL     1     -17.968   4.670   0.965  0.00  0.00    +0.000 A 
ATOM     16  C   UNL     1     -18.769   4.384   3.270  0.00  0.00    +0.000 A 
ATOM     17  C   UNL     1     -16.015   3.039   1.341  0.00  0.00    +0.000 C 
BRANCH  15  18
ATOM     18  C   UNL     1     -17.806   5.093  -0.441  0.00  0.00    +0.000 C 
BRANCH  18  19
ATOM     19  C   UNL     1     -18.046   3.954  -1.448  0.00  0.00    +0.000 C 
BRANCH  19  20
ATOM     20  O   UNL     1     -17.030   3.949  -2.443  0.00  0.00    +0.000 OA
ATOM     21  H   UNL     1     -16.970   4.851  -2.802  0.00  0.00    +0.000 HD
ENDBRANCH  19  20
ENDBRANCH  18  19
ENDBRANCH  15  18
ENDBRANCH   1  13
TORSDOF 5
ENDMDL
MODEL 3
REMARK VINA RESULT:    -4.549      3.161      5.576
REMARK INTER + INTRA:          -5.970
REMARK INTER:                  -5.526
REMARK INTRA:                  -0.444
REMARK UNBOUND:                -0.224
REMARK  Name = ./IMPHY000005_3D.pdb
REMARK  7 active torsions:
REMARK  status: ('A' for Active; 'I' for Inactive)
REMARK    1  A    between atoms: O_2  and  C_14
REMARK    2  A    between atoms: N_3  and  C_8
REMARK    3  A    between atoms: C_7  and  C_13
REMARK    4  A    between atoms: C_8  and  C_11
REMARK    5  A    between atoms: C_9  and  C_10
REMARK    6  A    between atoms: C_10  and  C_14
REMARK    7  A    between atoms: C_17  and  C_18
REMARK                            x       y       z     vdW  Elec       q    Type
REMARK                         _______ _______ _______ _____ _____    ______ ____
ROOT
ATOM      1  C   UNL     1     -18.914   4.865   2.828  0.00  0.00    +0.000 C 
ENDROOT
BRANCH   1   5
ATOM      2  N   UNL     1     -22.011   2.780   2.245  0.00  0.00    +0.000 NA
ATOM      3  N   UNL     1     -20.748   1.829   4.063  0.00  0.00    +0.000 NA
ATOM      4  N   UNL     1     -21.234   4.729   1.141  0.00  0.00    +0.000 N 
ATOM      5  C   UNL     1     -19.950   3.807   2.948  0.00  0.00    +0.000 A 
ATOM      6  C   UNL     1     -21.067   3.738   2.140  0.00  0.00    +0.000 A 
ATOM      7  C   UNL     1     -19.842   2.816   3.902  0.00  0.00    +0.000 A 
ATOM      8  C   UNL     1     -21.792   1.870   3.213  0.00  0.00    +0.000 A 
ATOM      9  C   UNL     1     -22.813   0.794   3.361  0.00  0.00    +0.000 C 
ATOM     10  H   UNL     1     -20.935   5.676   1.332  0.00  0.00    +0.000 HD
ATOM     11  H   UNL     1     -22.051   4.625   0.551  0.00  0.00    +0.000 HD
ENDBRANCH   1   5
BRANCH   1  13
ATOM     12  S   UNL     1     -16.246   3.525   0.320  0.00  0.00    +0.000 S 
ATOM     13  N   UNL     1     -17.732   4.342   2.137  0.00  0.00    +0.000 N 
ATOM     14  C   UNL     1     -16.566   4.051   2.786  0.00  0.00    +0.000 A 
ATOM     15  C   UNL     1     -15.612   3.576   1.918  0.00  0.00    +0.000 A 
ATOM     16  C   UNL     1     -17.754   4.132   0.850  0.00  0.00    +0.000 A 
ATOM     17  C   UNL     1     -16.483   4.266   4.238  0.00  0.00    +0.000 C 
BRANCH  15  18
ATOM     18  C   UNL     1     -14.225   3.143   2.179  0.00  0.00    +0.000 C 
BRANCH  18  19
ATOM     19  C   UNL     1     -13.644   2.263   1.057  0.00  0.00    +0.000 C 
BRANCH  19  20
ATOM     20  O   UNL     1     -12.645   2.974   0.336  0.00  0.00    +0.000 OA
ATOM     21  H   UNL     1     -12.064   3.402   0.988  0.00  0.00    +0.000 HD
ENDBRANCH  19  20
ENDBRANCH  18  19
ENDBRANCH  15  18
ENDBRANCH   1  13
TORSDOF 5
ENDMDL
MODEL 4
REMARK VINA RESULT:    -4.484     13.071     14.855
REMARK INTER + INTRA:          -5.887
REMARK INTER:                  -5.460
REMARK INTRA:                  -0.427
REMARK UNBOUND:                -0.224
REMARK  Name = ./IMPHY000005_3D.pdb
REMARK  7 active torsions:
REMARK  status: ('A' for Active; 'I' for Inactive)
REMARK    1  A    between atoms: O_2  and  C_14
REMARK    2  A    between atoms: N_3  and  C_8
REMARK    3  A    between atoms: C_7  and  C_13
REMARK    4  A    between atoms: C_8  and  C_11
REMARK    5  A    between atoms: C_9  and  C_10
REMARK    6  A    between atoms: C_10  and  C_14
REMARK    7  A    between atoms: C_17  and  C_18
REMARK                            x       y       z     vdW  Elec       q    Type
REMARK                         _______ _______ _______ _____ _____    ______ ____
ROOT
ATOM      1  C   UNL     1     -28.597  10.671   8.148  0.00  0.00    +0.000 C 
ENDROOT
BRANCH   1   5
ATOM      2  N   UNL     1     -29.677  14.246   8.725  0.00  0.00    +0.000 NA
ATOM      3  N   UNL     1     -27.274  14.162   8.568  0.00  0.00    +0.000 NA
ATOM      4  N   UNL     1     -30.959  12.262   8.518  0.00  0.00    +0.000 N 
ATOM      5  C   UNL     1     -28.567  12.142   8.357  0.00  0.00    +0.000 A 
ATOM      6  C   UNL     1     -29.700  12.911   8.535  0.00  0.00    +0.000 A 
ATOM      7  C   UNL     1     -27.370  12.829   8.383  0.00  0.00    +0.000 A 
ATOM      8  C   UNL     1     -28.449  14.800   8.731  0.00  0.00    +0.000 A 
ATOM      9  C   UNL     1     -28.384  16.274   8.938  0.00  0.00    +0.000 C 
ATOM     10  H   UNL     1     -31.100  11.478   7.896  0.00  0.00    +0.000 HD
ATOM     11  H   UNL     1     -31.762  12.857   8.681  0.00  0.00    +0.000 HD
ENDBRANCH   1   5
BRANCH   1  13
ATOM     12  S   UNL     1     -27.060   9.097  11.367  0.00  0.00    +0.000 S 
ATOM     13  N   UNL     1     -27.789   9.997   9.167  0.00  0.00    +0.000 N 
ATOM     14  C   UNL     1     -26.592   9.402   8.887  0.00  0.00    +0.000 A 
ATOM     15  C   UNL     1     -26.034   8.841  10.010  0.00  0.00    +0.000 A 
ATOM     16  C   UNL     1     -28.196   9.940  10.405  0.00  0.00    +0.000 A 
ATOM     17  C   UNL     1     -26.082   9.436   7.508  0.00  0.00    +0.000 C 
BRANCH  15  18
ATOM     18  C   UNL     1     -24.763   8.107  10.172  0.00  0.00    +0.000 C 
BRANCH  18  19
ATOM     19  C   UNL     1     -24.825   6.663   9.642  0.00  0.00    +0.000 C 
BRANCH  19  20
ATOM     20  O   UNL     1     -23.517   6.118   9.530  0.00  0.00    +0.000 OA
ATOM     21  H   UNL     1     -23.023   6.381  10.325  0.00  0.00    +0.000 HD
ENDBRANCH  19  20
ENDBRANCH  18  19
ENDBRANCH  15  18
ENDBRANCH   1  13
TORSDOF 5
ENDMDL
MODEL 5
REMARK VINA RESULT:    -4.383      1.525      2.345
REMARK INTER + INTRA:          -5.760
REMARK INTER:                  -5.332
REMARK INTRA:                  -0.428
REMARK UNBOUND:                -0.224
REMARK  Name = ./IMPHY000005_3D.pdb
REMARK  7 active torsions:
REMARK  status: ('A' for Active; 'I' for Inactive)
REMARK    1  A    between atoms: O_2  and  C_14
REMARK    2  A    between atoms: N_3  and  C_8
REMARK    3  A    between atoms: C_7  and  C_13
REMARK    4  A    between atoms: C_8  and  C_11
REMARK    5  A    between atoms: C_9  and  C_10
REMARK    6  A    between atoms: C_10  and  C_14
REMARK    7  A    between atoms: C_17  and  C_18
REMARK                            x       y       z     vdW  Elec       q    Type
REMARK                         _______ _______ _______ _____ _____    ______ ____
ROOT
ATOM      1  C   UNL     1     -15.068   2.689   3.748  0.00  0.00    +0.000 C 
ENDROOT
BRANCH   1   5
ATOM      2  N   UNL     1     -15.341   3.685   7.384  0.00  0.00    +0.000 NA
ATOM      3  N   UNL     1     -14.570   5.574   6.102  0.00  0.00    +0.000 NA
ATOM      4  N   UNL     1     -15.794   1.619   6.312  0.00  0.00    +0.000 N 
ATOM      5  C   UNL     1     -15.027   3.481   5.006  0.00  0.00    +0.000 A 
ATOM      6  C   UNL     1     -15.376   2.970   6.240  0.00  0.00    +0.000 A 
ATOM      7  C   UNL     1     -14.629   4.802   4.997  0.00  0.00    +0.000 A 
ATOM      8  C   UNL     1     -14.934   4.961   7.245  0.00  0.00    +0.000 A 
ATOM      9  C   UNL     1     -14.882   5.783   8.487  0.00  0.00    +0.000 C 
ATOM     10  H   UNL     1     -16.332   1.229   5.550  0.00  0.00    +0.000 HD
ATOM     11  H   UNL     1     -16.013   1.276   7.240  0.00  0.00    +0.000 HD
ENDBRANCH   1   5
BRANCH   1  13
ATOM     12  S   UNL     1     -18.388   3.818   2.043  0.00  0.00    +0.000 S 
ATOM     13  N   UNL     1     -16.130   3.186   2.870  0.00  0.00    +0.000 N 
ATOM     14  C   UNL     1     -15.887   3.665   1.615  0.00  0.00    +0.000 A 
ATOM     15  C   UNL     1     -17.046   4.068   0.996  0.00  0.00    +0.000 A 
ATOM     16  C   UNL     1     -17.373   3.186   3.266  0.00  0.00    +0.000 A 
ATOM     17  C   UNL     1     -14.505   3.688   1.113  0.00  0.00    +0.000 C 
BRANCH  15  18
ATOM     18  C   UNL     1     -17.254   4.642  -0.348  0.00  0.00    +0.000 C 
BRANCH  18  19
ATOM     19  C   UNL     1     -18.254   3.842  -1.202  0.00  0.00    +0.000 C 
BRANCH  19  20
ATOM     20  O   UNL     1     -18.503   4.511  -2.432  0.00  0.00    +0.000 OA
ATOM     21  H   UNL     1     -18.023   4.031  -3.128  0.00  0.00    +0.000 HD
ENDBRANCH  19  20
ENDBRANCH  18  19
ENDBRANCH  15  18
ENDBRANCH   1  13
TORSDOF 5
ENDMDL
MODEL 6
REMARK VINA RESULT:    -4.361      4.882      8.068
REMARK INTER + INTRA:          -5.732
REMARK INTER:                  -5.172
REMARK INTRA:                  -0.560
REMARK UNBOUND:                -0.224
REMARK  Name = ./IMPHY000005_3D.pdb
REMARK  7 active torsions:
REMARK  status: ('A' for Active; 'I' for Inactive)
REMARK    1  A    between atoms: O_2  and  C_14
REMARK    2  A    between atoms: N_3  and  C_8
REMARK    3  A    between atoms: C_7  and  C_13
REMARK    4  A    between atoms: C_8  and  C_11
REMARK    5  A    between atoms: C_9  and  C_10
REMARK    6  A    between atoms: C_10  and  C_14
REMARK    7  A    between atoms: C_17  and  C_18
REMARK                            x       y       z     vdW  Elec       q    Type
REMARK                         _______ _______ _______ _____ _____    ______ ____
ROOT
ATOM      1  C   UNL     1     -14.366   4.501   7.162  0.00  0.00    +0.000 C 
ENDROOT
BRANCH   1   5
ATOM      2  N   UNL     1     -16.767   3.738   4.345  0.00  0.00    +0.000 NA
ATOM      3  N   UNL     1     -17.122   6.000   5.097  0.00  0.00    +0.000 NA
ATOM      4  N   UNL     1     -15.109   2.386   5.367  0.00  0.00    +0.000 N 
ATOM      5  C   UNL     1     -15.436   4.635   6.140  0.00  0.00    +0.000 A 
ATOM      6  C   UNL     1     -15.796   3.621   5.275  0.00  0.00    +0.000 A 
ATOM      7  C   UNL     1     -16.140   5.814   6.004  0.00  0.00    +0.000 A 
ATOM      8  C   UNL     1     -17.381   4.937   4.312  0.00  0.00    +0.000 A 
ATOM      9  C   UNL     1     -18.460   5.106   3.297  0.00  0.00    +0.000 C 
ATOM     10  H   UNL     1     -14.125   2.387   5.596  0.00  0.00    +0.000 HD
ATOM     11  H   UNL     1     -15.423   1.660   4.734  0.00  0.00    +0.000 HD
ENDBRANCH   1   5
BRANCH   1  13
ATOM     12  S   UNL     1     -16.232   4.038  10.555  0.00  0.00    +0.000 S 
ATOM     13  N   UNL     1     -14.935   4.597   8.509  0.00  0.00    +0.000 N 
ATOM     14  C   UNL     1     -14.680   5.646   9.345  0.00  0.00    +0.000 A 
ATOM     15  C   UNL     1     -15.329   5.502  10.547  0.00  0.00    +0.000 A 
ATOM     16  C   UNL     1     -15.723   3.663   8.965  0.00  0.00    +0.000 A 
ATOM     17  C   UNL     1     -13.800   6.731   8.884  0.00  0.00    +0.000 C 
BRANCH  15  18
ATOM     18  C   UNL     1     -15.340   6.384  11.732  0.00  0.00    +0.000 C 
BRANCH  18  19
ATOM     19  C   UNL     1     -14.127   6.172  12.656  0.00  0.00    +0.000 C 
BRANCH  19  20
ATOM     20  O   UNL     1     -13.153   7.185  12.436  0.00  0.00    +0.000 OA
ATOM     21  H   UNL     1     -13.579   8.042  12.610  0.00  0.00    +0.000 HD
ENDBRANCH  19  20
ENDBRANCH  18  19
ENDBRANCH  15  18
ENDBRANCH   1  13
TORSDOF 5
ENDMDL
MODEL 7
REMARK VINA RESULT:    -4.359      4.141      6.085
REMARK INTER + INTRA:          -5.730
REMARK INTER:                  -5.203
REMARK INTRA:                  -0.527
REMARK UNBOUND:                -0.224
REMARK  Name = ./IMPHY000005_3D.pdb
REMARK  7 active torsions:
REMARK  status: ('A' for Active; 'I' for Inactive)
REMARK    1  A    between atoms: O_2  and  C_14
REMARK    2  A    between atoms: N_3  and  C_8
REMARK    3  A    between atoms: C_7  and  C_13
REMARK    4  A    between atoms: C_8  and  C_11
REMARK    5  A    between atoms: C_9  and  C_10
REMARK    6  A    between atoms: C_10  and  C_14
REMARK    7  A    between atoms: C_17  and  C_18
REMARK                            x       y       z     vdW  Elec       q    Type
REMARK                         _______ _______ _______ _____ _____    ______ ____
ROOT
ATOM      1  C   UNL     1     -15.262   4.657   9.948  0.00  0.00    +0.000 C 
ENDROOT
BRANCH   1   5
ATOM      2  N   UNL     1     -14.590   8.005  11.568  0.00  0.00    +0.000 NA
ATOM      3  N   UNL     1     -16.770   8.046  10.543  0.00  0.00    +0.000 NA
ATOM      4  N   UNL     1     -13.251   6.051  11.450  0.00  0.00    +0.000 N 
ATOM      5  C   UNL     1     -15.418   6.058  10.417  0.00  0.00    +0.000 A 
ATOM      6  C   UNL     1     -14.454   6.732  11.140  0.00  0.00    +0.000 A 
ATOM      7  C   UNL     1     -16.567   6.772  10.146  0.00  0.00    +0.000 A 
ATOM      8  C   UNL     1     -15.756   8.593  11.239  0.00  0.00    +0.000 A 
ATOM      9  C   UNL     1     -15.944  10.000  11.695  0.00  0.00    +0.000 C 
ATOM     10  H   UNL     1     -13.283   5.061  11.651  0.00  0.00    +0.000 HD
ATOM     11  H   UNL     1     -12.558   6.591  11.956  0.00  0.00    +0.000 HD
ENDBRANCH   1   5
BRANCH   1  13
ATOM     12  S   UNL     1     -14.288   4.880   6.179  0.00  0.00    +0.000 S 
ATOM     13  N   UNL     1     -15.177   4.617   8.486  0.00  0.00    +0.000 N 
ATOM     14  C   UNL     1     -16.186   4.139   7.700  0.00  0.00    +0.000 A 
ATOM     15  C   UNL     1     -15.862   4.209   6.367  0.00  0.00    +0.000 A 
ATOM     16  C   UNL     1     -14.110   5.048   7.872  0.00  0.00    +0.000 A 
ATOM     17  C   UNL     1     -17.415   3.641   8.337  0.00  0.00    +0.000 C 
BRANCH  15  18
ATOM     18  C   UNL     1     -16.642   3.809   5.178  0.00  0.00    +0.000 C 
BRANCH  18  19
ATOM     19  C   UNL     1     -17.271   5.002   4.436  0.00  0.00    +0.000 C 
BRANCH  19  20
ATOM     20  O   UNL     1     -17.578   6.048   5.348  0.00  0.00    +0.000 OA
ATOM     21  H   UNL     1     -18.385   6.487   5.028  0.00  0.00    +0.000 HD
ENDBRANCH  19  20
ENDBRANCH  18  19
ENDBRANCH  15  18
ENDBRANCH   1  13
TORSDOF 5
ENDMDL
MODEL 8
REMARK VINA RESULT:    -4.341      3.963      5.662
REMARK INTER + INTRA:          -5.707
REMARK INTER:                  -5.221
REMARK INTRA:                  -0.486
REMARK UNBOUND:                -0.224
REMARK  Name = ./IMPHY000005_3D.pdb
REMARK  7 active torsions:
REMARK  status: ('A' for Active; 'I' for Inactive)
REMARK    1  A    between atoms: O_2  and  C_14
REMARK    2  A    between atoms: N_3  and  C_8
REMARK    3  A    between atoms: C_7  and  C_13
REMARK    4  A    between atoms: C_8  and  C_11
REMARK    5  A    between atoms: C_9  and  C_10
REMARK    6  A    between atoms: C_10  and  C_14
REMARK    7  A    between atoms: C_17  and  C_18
REMARK                            x       y       z     vdW  Elec       q    Type
REMARK                         _______ _______ _______ _____ _____    ______ ____
ROOT
ATOM      1  C   UNL     1     -15.508   4.626   9.037  0.00  0.00    +0.000 C 
ENDROOT
BRANCH   1   5
ATOM      2  N   UNL     1     -16.851   7.714  10.751  0.00  0.00    +0.000 NA
ATOM      3  N   UNL     1     -14.491   7.993  10.355  0.00  0.00    +0.000 NA
ATOM      4  N   UNL     1     -17.948   5.721  10.082  0.00  0.00    +0.000 N 
ATOM      5  C   UNL     1     -15.596   5.967   9.671  0.00  0.00    +0.000 A 
ATOM      6  C   UNL     1     -16.767   6.497  10.174  0.00  0.00    +0.000 A 
ATOM      7  C   UNL     1     -14.478   6.768   9.790  0.00  0.00    +0.000 A 
ATOM      8  C   UNL     1     -15.693   8.398  10.808  0.00  0.00    +0.000 A 
ATOM      9  C   UNL     1     -15.746   9.748  11.439  0.00  0.00    +0.000 C 
ATOM     10  H   UNL     1     -18.089   5.135   9.270  0.00  0.00    +0.000 HD
ATOM     11  H   UNL     1     -18.778   6.135  10.488  0.00  0.00    +0.000 HD
ENDBRANCH   1   5
BRANCH   1  13
ATOM     12  S   UNL     1     -16.304   5.171   5.259  0.00  0.00    +0.000 S 
ATOM     13  N   UNL     1     -15.509   4.754   7.577  0.00  0.00    +0.000 N 
ATOM     14  C   UNL     1     -14.401   4.521   6.814  0.00  0.00    +0.000 A 
ATOM     15  C   UNL     1     -14.662   4.708   5.478  0.00  0.00    +0.000 A 
ATOM     16  C   UNL     1     -16.595   5.102   6.943  0.00  0.00    +0.000 A 
ATOM     17  C   UNL     1     -13.149   4.123   7.474  0.00  0.00    +0.000 C 
BRANCH  15  18
ATOM     18  C   UNL     1     -13.770   4.569   4.309  0.00  0.00    +0.000 C 
BRANCH  18  19
ATOM     19  C   UNL     1     -14.107   3.351   3.430  0.00  0.00    +0.000 C 
BRANCH  19  20
ATOM     20  O   UNL     1     -14.069   2.156   4.201  0.00  0.00    +0.000 OA
ATOM     21  H   UNL     1     -14.276   2.396   5.121  0.00  0.00    +0.000 HD
ENDBRANCH  19  20
ENDBRANCH  18  19
ENDBRANCH  15  18
ENDBRANCH   1  13
TORSDOF 5
ENDMDL
MODEL 9
REMARK VINA RESULT:    -4.341      3.364      6.480
REMARK INTER + INTRA:          -5.707
REMARK INTER:                  -5.583
REMARK INTRA:                  -0.124
REMARK UNBOUND:                -0.224
REMARK  Name = ./IMPHY000005_3D.pdb
REMARK  7 active torsions:
REMARK  status: ('A' for Active; 'I' for Inactive)
REMARK    1  A    between atoms: O_2  and  C_14
REMARK    2  A    between atoms: N_3  and  C_8
REMARK    3  A    between atoms: C_7  and  C_13
REMARK    4  A    between atoms: C_8  and  C_11
REMARK    5  A    between atoms: C_9  and  C_10
REMARK    6  A    between atoms: C_10  and  C_14
REMARK    7  A    between atoms: C_17  and  C_18
REMARK                            x       y       z     vdW  Elec       q    Type
REMARK                         _______ _______ _______ _____ _____    ______ ____
ROOT
ATOM      1  C   UNL     1     -18.492   5.119   3.604  0.00  0.00    +0.000 C 
ENDROOT
BRANCH   1   5
ATOM      2  N   UNL     1     -19.521   4.458   0.029  0.00  0.00    +0.000 NA
ATOM      3  N   UNL     1     -17.150   4.089   0.250  0.00  0.00    +0.000 NA
ATOM      4  N   UNL     1     -20.807   5.128   1.905  0.00  0.00    +0.000 N 
ATOM      5  C   UNL     1     -18.447   4.770   2.160  0.00  0.00    +0.000 A 
ATOM      6  C   UNL     1     -19.557   4.773   1.340  0.00  0.00    +0.000 A 
ATOM      7  C   UNL     1     -17.258   4.416   1.555  0.00  0.00    +0.000 A 
ATOM      8  C   UNL     1     -18.303   4.130  -0.444  0.00  0.00    +0.000 A 
ATOM      9  C   UNL     1     -18.223   3.775  -1.890  0.00  0.00    +0.000 C 
ATOM     10  H   UNL     1     -21.012   4.856   2.857  0.00  0.00    +0.000 HD
ATOM     11  H   UNL     1     -21.590   5.146   1.263  0.00  0.00    +0.000 HD
ENDBRANCH   1   5
BRANCH   1  13
ATOM     12  S   UNL     1     -16.838   2.001   5.263  0.00  0.00    +0.000 S 
ATOM     13  N   UNL     1     -17.705   4.159   4.383  0.00  0.00    +0.000 N 
ATOM     14  C   UNL     1     -16.759   4.542   5.290  0.00  0.00    +0.000 A 
ATOM     15  C   UNL     1     -16.164   3.456   5.887  0.00  0.00    +0.000 A 
ATOM     16  C   UNL     1     -17.888   2.875   4.234  0.00  0.00    +0.000 A 
ATOM     17  C   UNL     1     -16.511   5.976   5.503  0.00  0.00    +0.000 C 
BRANCH  15  18
ATOM     18  C   UNL     1     -15.104   3.400   6.912  0.00  0.00    +0.000 C 
BRANCH  18  19
ATOM     19  C   UNL     1     -13.703   3.707   6.354  0.00  0.00    +0.000 C 
BRANCH  19  20
ATOM     20  O   UNL     1     -12.993   4.565   7.238  0.00  0.00    +0.000 OA
ATOM     21  H   UNL     1     -12.044   4.445   7.062  0.00  0.00    +0.000 HD
ENDBRANCH  19  20
ENDBRANCH  18  19
ENDBRANCH  15  18
ENDBRANCH   1  13
TORSDOF 5
ENDMDL
