MODEL 1
REMARK VINA RESULT:    -6.485      0.000      0.000
REMARK INTER + INTRA:         -13.448
REMARK INTER:                 -11.034
REMARK INTRA:                  -2.415
REMARK UNBOUND:                -2.415
REMARK  Name = ./IMPHY000008_3D.pdb
REMARK  22 active torsions:
REMARK  status: ('A' for Active; 'I' for Inactive)
REMARK    1  A    between atoms: O_2  and  C_21
REMARK    2  A    between atoms: O_2  and  C_36
REMARK    3  A    between atoms: O_3  and  C_23
REMARK    4  A    between atoms: O_3  and  C_37
REMARK    5  A    between atoms: O_4  and  C_34
REMARK    6  A    between atoms: O_4  and  C_38
REMARK    7  A    between atoms: O_9  and  C_42
REMARK    8  A    between atoms: O_9  and  C_47
REMARK    9  A    between atoms: O_10  and  C_44
REMARK   10  A    between atoms: O_10  and  C_46
REMARK   11  A    between atoms: O_12  and  C_48
REMARK   12  A    between atoms: O_13  and  C_49
REMARK   13  A    between atoms: O_13  and  C_53
REMARK   14  A    between atoms: O_14  and  C_51
REMARK   15  A    between atoms: C_17  and  C_28
REMARK   16  A    between atoms: C_19  and  C_30
REMARK   17  A    between atoms: C_24  and  C_33
REMARK   18  A    between atoms: C_33  and  C_35
REMARK   19  A    between atoms: C_36  and  C_39
REMARK   20  A    between atoms: C_37  and  C_40
REMARK   21  A    between atoms: C_43  and  C_45
REMARK   22  A    between atoms: C_50  and  C_52
REMARK                            x       y       z     vdW  Elec       q    Type
REMARK                         _______ _______ _______ _____ _____    ______ ____
ROOT
ATOM      1  O   UNL     1     -26.351   9.381  13.306  0.00  0.00    +0.000 OA
ATOM      2  C   UNL     1     -26.759  10.338  12.348  0.00  0.00    +0.000 C 
ATOM      3  C   UNL     1     -25.371   9.698  12.299  0.00  0.00    +0.000 C 
ATOM      4  C   UNL     1     -27.967   9.905  11.528  0.00  0.00    +0.000 C 
ATOM      5  C   UNL     1     -25.064   8.730  11.168  0.00  0.00    +0.000 C 
ATOM      6  C   UNL     1     -24.199   7.511  11.681  0.00  0.00    +0.000 C 
ATOM      7  C   UNL     1     -26.845  11.791  12.629  0.00  0.00    +0.000 C 
ATOM      8  C   UNL     1     -27.663   8.586  10.750  0.00  0.00    +0.000 C 
ATOM      9  C   UNL     1     -24.141  10.251  12.980  0.00  0.00    +0.000 C 
ATOM     10  C   UNL     1     -26.236   8.485  10.177  0.00  0.00    +0.000 C 
ATOM     11  C   UNL     1     -28.315  11.246  10.756  0.00  0.00    +0.000 C 
ATOM     12  C   UNL     1     -22.928   8.114  12.384  0.00  0.00    +0.000 C 
ATOM     13  C   UNL     1     -27.291  12.292  11.258  0.00  0.00    +0.000 C 
ATOM     14  C   UNL     1     -23.275   9.103  13.508  0.00  0.00    +0.000 C 
ATOM     15  C   UNL     1     -29.169   9.646  12.490  0.00  0.00    +0.000 C 
ATOM     16  C   UNL     1     -23.674   6.648  10.499  0.00  0.00    +0.000 C 
ATOM     17  C   UNL     1     -25.010   6.598  12.623  0.00  0.00    +0.000 C 
ATOM     18  C   UNL     1     -21.940   7.041  12.863  0.00  0.00    +0.000 C 
ATOM     19  C   UNL     1     -22.665   5.579  10.925  0.00  0.00    +0.000 C 
ATOM     20  C   UNL     1     -21.476   6.150  11.703  0.00  0.00    +0.000 C 
ENDROOT
BRANCH  11  22
ATOM     21  O   UNL     1     -29.279  10.445   8.689  0.00  0.00    +0.000 OA
ATOM     22  C   UNL     1     -28.496  11.220   9.240  0.00  0.00    +0.000 C 
ATOM     23  C   UNL     1     -27.799  12.276   8.417  0.00  0.00    +0.000 C 
ENDBRANCH  11  22
BRANCH   8  24
ATOM     24  O   UNL     1     -27.898   7.449  11.626  0.00  0.00    +0.000 OA
BRANCH  24  26
ATOM     25  O   UNL     1     -27.972   5.182  11.261  0.00  0.00    +0.000 OA
ATOM     26  C   UNL     1     -28.377   6.314  11.047  0.00  0.00    +0.000 C 
ATOM     27  C   UNL     1     -29.467   6.653  10.077  0.00  0.00    +0.000 C 
ENDBRANCH  24  26
ENDBRANCH   8  24
BRANCH  10  28
ATOM     28  O   UNL     1     -26.146   9.493   9.127  0.00  0.00    +0.000 OA
BRANCH  28  30
ATOM     29  O   UNL     1     -25.853   9.705   6.855  0.00  0.00    +0.000 OA
ATOM     30  C   UNL     1     -26.098   9.035   7.846  0.00  0.00    +0.000 C 
ATOM     31  C   UNL     1     -26.412   7.570   7.812  0.00  0.00    +0.000 C 
ENDBRANCH  28  30
ENDBRANCH  10  28
BRANCH  20  32
ATOM     32  O   UNL     1     -20.716   5.032  12.169  0.00  0.00    +0.000 OA
BRANCH  32  34
ATOM     33  O   UNL     1     -18.930   6.315  11.341  0.00  0.00    +0.000 OA
ATOM     34  C   UNL     1     -19.351   5.022  11.756  0.00  0.00    +0.000 C 
ATOM     35  C   UNL     1     -19.248   4.069  10.576  0.00  0.00    +0.000 C 
ATOM     36  C   UNL     1     -17.820   3.994  10.042  0.00  0.00    +0.000 C 
ATOM     37  C   UNL     1     -17.547   6.335  10.988  0.00  0.00    +0.000 C 
ATOM     38  C   UNL     1     -17.240   5.409   9.791  0.00  0.00    +0.000 C 
ATOM     39  C   UNL     1     -17.181   7.784  10.678  0.00  0.00    +0.000 C 
BRANCH  36  40
ATOM     40  O   UNL     1     -17.826   3.268   8.798  0.00  0.00    +0.000 OA
ATOM     41  C   UNL     1     -18.932   2.384   8.665  0.00  0.00    +0.000 C 
ENDBRANCH  36  40
BRANCH  38  42
ATOM     42  O   UNL     1     -15.809   5.401   9.649  0.00  0.00    +0.000 OA
BRANCH  42  44
ATOM     43  O   UNL     1     -16.456   5.670   7.436  0.00  0.00    +0.000 OA
ATOM     44  C   UNL     1     -15.335   5.542   8.309  0.00  0.00    +0.000 C 
ATOM     45  C   UNL     1     -14.531   4.262   7.955  0.00  0.00    +0.000 C 
ATOM     46  C   UNL     1     -14.875   3.771   6.529  0.00  0.00    +0.000 C 
ATOM     47  C   UNL     1     -16.047   5.971   6.091  0.00  0.00    +0.000 C 
ATOM     48  C   UNL     1     -14.985   4.975   5.584  0.00  0.00    +0.000 C 
ATOM     49  C   UNL     1     -17.308   5.906   5.239  0.00  0.00    +0.000 C 
BRANCH  45  50
ATOM     50  O   UNL     1     -13.119   4.527   8.091  0.00  0.00    +0.000 OA
ATOM     51  H   UNL     1     -12.668   3.675   7.925  0.00  0.00    +0.000 HD
ENDBRANCH  45  50
BRANCH  46  52
ATOM     52  O   UNL     1     -13.879   2.891   5.970  0.00  0.00    +0.000 OA
ATOM     53  C   UNL     1     -14.402   2.017   4.975  0.00  0.00    +0.000 C 
ENDBRANCH  46  52
BRANCH  48  54
ATOM     54  O   UNL     1     -13.693   5.618   5.542  0.00  0.00    +0.000 OA
ATOM     55  H   UNL     1     -13.900   6.573   5.461  0.00  0.00    +0.000 HD
ENDBRANCH  48  54
ENDBRANCH  42  44
ENDBRANCH  38  42
ENDBRANCH  32  34
ENDBRANCH  20  32
TORSDOF 13
ENDMDL
MODEL 2
REMARK VINA RESULT:    -5.815      8.803     11.950
REMARK INTER + INTRA:         -12.308
REMARK INTER:                 -10.084
REMARK INTRA:                  -2.225
REMARK UNBOUND:                -2.415
REMARK  Name = ./IMPHY000008_3D.pdb
REMARK  22 active torsions:
REMARK  status: ('A' for Active; 'I' for Inactive)
REMARK    1  A    between atoms: O_2  and  C_21
REMARK    2  A    between atoms: O_2  and  C_36
REMARK    3  A    between atoms: O_3  and  C_23
REMARK    4  A    between atoms: O_3  and  C_37
REMARK    5  A    between atoms: O_4  and  C_34
REMARK    6  A    between atoms: O_4  and  C_38
REMARK    7  A    between atoms: O_9  and  C_42
REMARK    8  A    between atoms: O_9  and  C_47
REMARK    9  A    between atoms: O_10  and  C_44
REMARK   10  A    between atoms: O_10  and  C_46
REMARK   11  A    between atoms: O_12  and  C_48
REMARK   12  A    between atoms: O_13  and  C_49
REMARK   13  A    between atoms: O_13  and  C_53
REMARK   14  A    between atoms: O_14  and  C_51
REMARK   15  A    between atoms: C_17  and  C_28
REMARK   16  A    between atoms: C_19  and  C_30
REMARK   17  A    between atoms: C_24  and  C_33
REMARK   18  A    between atoms: C_33  and  C_35
REMARK   19  A    between atoms: C_36  and  C_39
REMARK   20  A    between atoms: C_37  and  C_40
REMARK   21  A    between atoms: C_43  and  C_45
REMARK   22  A    between atoms: C_50  and  C_52
REMARK                            x       y       z     vdW  Elec       q    Type
REMARK                         _______ _______ _______ _____ _____    ______ ____
ROOT
ATOM      1  O   UNL     1     -18.401   3.831   4.405  0.00  0.00    +0.000 OA
ATOM      2  C   UNL     1     -18.341   4.235   3.051  0.00  0.00    +0.000 C 
ATOM      3  C   UNL     1     -17.256   4.633   4.053  0.00  0.00    +0.000 C 
ATOM      4  C   UNL     1     -18.261   3.072   2.070  0.00  0.00    +0.000 C 
ATOM      5  C   UNL     1     -15.877   4.013   3.906  0.00  0.00    +0.000 C 
ATOM      6  C   UNL     1     -15.253   3.671   5.317  0.00  0.00    +0.000 C 
ATOM      7  C   UNL     1     -19.188   5.310   2.479  0.00  0.00    +0.000 C 
ATOM      8  C   UNL     1     -16.991   2.207   2.342  0.00  0.00    +0.000 C 
ATOM      9  C   UNL     1     -17.275   5.891   4.889  0.00  0.00    +0.000 C 
ATOM     10  C   UNL     1     -15.733   3.005   2.731  0.00  0.00    +0.000 C 
ATOM     11  C   UNL     1     -18.458   3.821   0.685  0.00  0.00    +0.000 C 
ATOM     12  C   UNL     1     -15.283   4.995   6.164  0.00  0.00    +0.000 C 
ATOM     13  C   UNL     1     -18.666   5.311   1.044  0.00  0.00    +0.000 C 
ATOM     14  C   UNL     1     -16.689   5.606   6.276  0.00  0.00    +0.000 C 
ATOM     15  C   UNL     1     -19.523   2.169   2.247  0.00  0.00    +0.000 C 
ATOM     16  C   UNL     1     -13.756   3.267   5.194  0.00  0.00    +0.000 C 
ATOM     17  C   UNL     1     -16.009   2.519   6.007  0.00  0.00    +0.000 C 
ATOM     18  C   UNL     1     -14.625   4.843   7.543  0.00  0.00    +0.000 C 
ATOM     19  C   UNL     1     -13.049   3.128   6.545  0.00  0.00    +0.000 C 
ATOM     20  C   UNL     1     -13.167   4.380   7.418  0.00  0.00    +0.000 C 
ENDROOT
BRANCH  11  22
ATOM     21  O   UNL     1     -16.766   4.484  -0.909  0.00  0.00    +0.000 OA
ATOM     22  C   UNL     1     -17.467   3.580  -0.451  0.00  0.00    +0.000 C 
ATOM     23  C   UNL     1     -17.245   2.163  -0.921  0.00  0.00    +0.000 C 
ENDBRANCH  11  22
BRANCH   8  24
ATOM     24  O   UNL     1     -17.282   1.247   3.396  0.00  0.00    +0.000 OA
BRANCH  24  26
ATOM     25  O   UNL     1     -16.573  -0.539   2.137  0.00  0.00    +0.000 OA
ATOM     26  C   UNL     1     -16.830  -0.023   3.214  0.00  0.00    +0.000 C 
ATOM     27  C   UNL     1     -16.719  -0.723   4.534  0.00  0.00    +0.000 C 
ENDBRANCH  24  26
ENDBRANCH   8  24
BRANCH  10  28
ATOM     28  O   UNL     1     -15.346   3.760   1.545  0.00  0.00    +0.000 OA
BRANCH  28  30
ATOM     29  O   UNL     1     -13.803   2.703   0.205  0.00  0.00    +0.000 OA
ATOM     30  C   UNL     1     -14.096   3.528   1.056  0.00  0.00    +0.000 C 
ATOM     31  C   UNL     1     -13.106   4.428   1.731  0.00  0.00    +0.000 C 
ENDBRANCH  28  30
ENDBRANCH  10  28
BRANCH  20  32
ATOM     32  O   UNL     1     -12.610   4.045   8.692  0.00  0.00    +0.000 OA
BRANCH  32  34
ATOM     33  O   UNL     1     -13.362   5.387  10.469  0.00  0.00    +0.000 OA
ATOM     34  C   UNL     1     -13.517   4.149   9.788  0.00  0.00    +0.000 C 
ATOM     35  C   UNL     1     -13.191   3.015  10.746  0.00  0.00    +0.000 C 
ATOM     36  C   UNL     1     -14.101   3.041  11.972  0.00  0.00    +0.000 C 
ATOM     37  C   UNL     1     -14.309   5.533  11.527  0.00  0.00    +0.000 C 
ATOM     38  C   UNL     1     -14.136   4.450  12.615  0.00  0.00    +0.000 C 
ATOM     39  C   UNL     1     -14.129   6.934  12.105  0.00  0.00    +0.000 C 
BRANCH  36  40
ATOM     40  O   UNL     1     -13.601   2.101  12.942  0.00  0.00    +0.000 OA
ATOM     41  C   UNL     1     -14.531   1.075  13.267  0.00  0.00    +0.000 C 
ENDBRANCH  36  40
BRANCH  38  42
ATOM     42  O   UNL     1     -15.239   4.616  13.522  0.00  0.00    +0.000 OA
BRANCH  42  44
ATOM     43  O   UNL     1     -15.641   5.642  15.565  0.00  0.00    +0.000 OA
ATOM     44  C   UNL     1     -14.886   4.627  14.906  0.00  0.00    +0.000 C 
ATOM     45  C   UNL     1     -13.370   4.948  15.004  0.00  0.00    +0.000 C 
ATOM     46  C   UNL     1     -13.092   5.963  16.138  0.00  0.00    +0.000 C 
ATOM     47  C   UNL     1     -15.449   5.603  16.989  0.00  0.00    +0.000 C 
ATOM     48  C   UNL     1     -13.953   5.614  17.361  0.00  0.00    +0.000 C 
ATOM     49  C   UNL     1     -16.160   6.830  17.547  0.00  0.00    +0.000 C 
BRANCH  45  50
ATOM     50  O   UNL     1     -12.631   3.725  15.205  0.00  0.00    +0.000 OA
ATOM     51  H   UNL     1     -13.091   3.042  14.676  0.00  0.00    +0.000 HD
ENDBRANCH  45  50
BRANCH  46  52
ATOM     52  O   UNL     1     -11.721   5.968  16.580  0.00  0.00    +0.000 OA
ATOM     53  C   UNL     1     -11.428   7.032  17.478  0.00  0.00    +0.000 C 
ENDBRANCH  46  52
BRANCH  48  54
ATOM     54  O   UNL     1     -13.553   4.305  17.817  0.00  0.00    +0.000 OA
ATOM     55  H   UNL     1     -12.669   4.447  18.217  0.00  0.00    +0.000 HD
ENDBRANCH  48  54
ENDBRANCH  42  44
ENDBRANCH  38  42
ENDBRANCH  32  34
ENDBRANCH  20  32
TORSDOF 13
ENDMDL
MODEL 3
REMARK VINA RESULT:    -5.774      1.539      2.336
REMARK INTER + INTRA:         -12.239
REMARK INTER:                  -9.691
REMARK INTRA:                  -2.547
REMARK UNBOUND:                -2.415
REMARK  Name = ./IMPHY000008_3D.pdb
REMARK  22 active torsions:
REMARK  status: ('A' for Active; 'I' for Inactive)
REMARK    1  A    between atoms: O_2  and  C_21
REMARK    2  A    between atoms: O_2  and  C_36
REMARK    3  A    between atoms: O_3  and  C_23
REMARK    4  A    between atoms: O_3  and  C_37
REMARK    5  A    between atoms: O_4  and  C_34
REMARK    6  A    between atoms: O_4  and  C_38
REMARK    7  A    between atoms: O_9  and  C_42
REMARK    8  A    between atoms: O_9  and  C_47
REMARK    9  A    between atoms: O_10  and  C_44
REMARK   10  A    between atoms: O_10  and  C_46
REMARK   11  A    between atoms: O_12  and  C_48
REMARK   12  A    between atoms: O_13  and  C_49
REMARK   13  A    between atoms: O_13  and  C_53
REMARK   14  A    between atoms: O_14  and  C_51
REMARK   15  A    between atoms: C_17  and  C_28
REMARK   16  A    between atoms: C_19  and  C_30
REMARK   17  A    between atoms: C_24  and  C_33
REMARK   18  A    between atoms: C_33  and  C_35
REMARK   19  A    between atoms: C_36  and  C_39
REMARK   20  A    between atoms: C_37  and  C_40
REMARK   21  A    between atoms: C_43  and  C_45
REMARK   22  A    between atoms: C_50  and  C_52
REMARK                            x       y       z     vdW  Elec       q    Type
REMARK                         _______ _______ _______ _____ _____    ______ ____
ROOT
ATOM      1  O   UNL     1     -26.194   9.207  13.378  0.00  0.00    +0.000 OA
ATOM      2  C   UNL     1     -26.631  10.174  12.443  0.00  0.00    +0.000 C 
ATOM      3  C   UNL     1     -25.239   9.547  12.354  0.00  0.00    +0.000 C 
ATOM      4  C   UNL     1     -27.853   9.741  11.644  0.00  0.00    +0.000 C 
ATOM      5  C   UNL     1     -24.949   8.598  11.203  0.00  0.00    +0.000 C 
ATOM      6  C   UNL     1     -24.063   7.380  11.679  0.00  0.00    +0.000 C 
ATOM      7  C   UNL     1     -26.723  11.622  12.747  0.00  0.00    +0.000 C 
ATOM      8  C   UNL     1     -27.555   8.437  10.841  0.00  0.00    +0.000 C 
ATOM      9  C   UNL     1     -24.000  10.102  13.016  0.00  0.00    +0.000 C 
ATOM     10  C   UNL     1     -26.141   8.357  10.235  0.00  0.00    +0.000 C 
ATOM     11  C   UNL     1     -28.231  11.091  10.899  0.00  0.00    +0.000 C 
ATOM     12  C   UNL     1     -22.782   7.984  12.362  0.00  0.00    +0.000 C 
ATOM     13  C   UNL     1     -27.205  12.138  11.393  0.00  0.00    +0.000 C 
ATOM     14  C   UNL     1     -23.112   8.954  13.507  0.00  0.00    +0.000 C 
ATOM     15  C   UNL     1     -29.032   9.458  12.629  0.00  0.00    +0.000 C 
ATOM     16  C   UNL     1     -23.557   6.539  10.473  0.00  0.00    +0.000 C 
ATOM     17  C   UNL     1     -24.844   6.446  12.625  0.00  0.00    +0.000 C 
ATOM     18  C   UNL     1     -21.773   6.914  12.803  0.00  0.00    +0.000 C 
ATOM     19  C   UNL     1     -22.528   5.473  10.860  0.00  0.00    +0.000 C 
ATOM     20  C   UNL     1     -21.328   6.044  11.620  0.00  0.00    +0.000 C 
ENDROOT
BRANCH  11  22
ATOM     21  O   UNL     1     -29.245  10.321   8.845  0.00  0.00    +0.000 OA
ATOM     22  C   UNL     1     -28.445  11.085   9.387  0.00  0.00    +0.000 C 
ATOM     23  C   UNL     1     -27.760  12.146   8.562  0.00  0.00    +0.000 C 
ENDBRANCH  11  22
BRANCH   8  24
ATOM     24  O   UNL     1     -27.761   7.285  11.705  0.00  0.00    +0.000 OA
BRANCH  24  26
ATOM     25  O   UNL     1     -27.745   5.040  11.219  0.00  0.00    +0.000 OA
ATOM     26  C   UNL     1     -28.238   6.153  11.120  0.00  0.00    +0.000 C 
ATOM     27  C   UNL     1     -29.453   6.470  10.302  0.00  0.00    +0.000 C 
ENDBRANCH  24  26
ENDBRANCH   8  24
BRANCH  10  28
ATOM     28  O   UNL     1     -26.083   9.381   9.198  0.00  0.00    +0.000 OA
BRANCH  28  30
ATOM     29  O   UNL     1     -25.748   9.608   6.933  0.00  0.00    +0.000 OA
ATOM     30  C   UNL     1     -26.053   8.941   7.909  0.00  0.00    +0.000 C 
ATOM     31  C   UNL     1     -26.470   7.503   7.848  0.00  0.00    +0.000 C 
ENDBRANCH  28  30
ENDBRANCH  10  28
BRANCH  20  32
ATOM     32  O   UNL     1     -20.548   4.926  12.053  0.00  0.00    +0.000 OA
BRANCH  32  34
ATOM     33  O   UNL     1     -18.723   6.223  11.341  0.00  0.00    +0.000 OA
ATOM     34  C   UNL     1     -19.208   4.907  11.565  0.00  0.00    +0.000 C 
ATOM     35  C   UNL     1     -19.226   4.157  10.243  0.00  0.00    +0.000 C 
ATOM     36  C   UNL     1     -17.832   4.089   9.620  0.00  0.00    +0.000 C 
ATOM     37  C   UNL     1     -17.360   6.222  10.915  0.00  0.00    +0.000 C 
ATOM     38  C   UNL     1     -17.173   5.490   9.569  0.00  0.00    +0.000 C 
ATOM     39  C   UNL     1     -16.914   7.679  10.822  0.00  0.00    +0.000 C 
BRANCH  36  40
ATOM     40  O   UNL     1     -17.947   3.580   8.278  0.00  0.00    +0.000 OA
ATOM     41  C   UNL     1     -18.780   2.432   8.178  0.00  0.00    +0.000 C 
ENDBRANCH  36  40
BRANCH  38  42
ATOM     42  O   UNL     1     -15.754   5.424   9.344  0.00  0.00    +0.000 OA
BRANCH  42  44
ATOM     43  O   UNL     1     -14.159   4.840  10.926  0.00  0.00    +0.000 OA
ATOM     44  C   UNL     1     -15.094   4.327   9.978  0.00  0.00    +0.000 C 
ATOM     45  C   UNL     1     -14.347   3.525   8.878  0.00  0.00    +0.000 C 
ATOM     46  C   UNL     1     -12.931   3.122   9.354  0.00  0.00    +0.000 C 
ATOM     47  C   UNL     1     -13.572   3.788  11.710  0.00  0.00    +0.000 C 
ATOM     48  C   UNL     1     -12.992   2.670  10.820  0.00  0.00    +0.000 C 
ATOM     49  C   UNL     1     -12.479   4.442  12.548  0.00  0.00    +0.000 C 
BRANCH  45  50
ATOM     50  O   UNL     1     -15.127   2.367   8.514  0.00  0.00    +0.000 OA
ATOM     51  H   UNL     1     -15.788   2.253   9.225  0.00  0.00    +0.000 HD
ENDBRANCH  45  50
BRANCH  46  52
ATOM     52  O   UNL     1     -12.364   2.029   8.604  0.00  0.00    +0.000 OA
ATOM     53  C   UNL     1     -11.082   1.634   9.077  0.00  0.00    +0.000 C 
ENDBRANCH  46  52
BRANCH  48  54
ATOM     54  O   UNL     1     -13.840   1.505  10.884  0.00  0.00    +0.000 OA
ATOM     55  H   UNL     1     -13.898   1.299  11.841  0.00  0.00    +0.000 HD
ENDBRANCH  48  54
ENDBRANCH  42  44
ENDBRANCH  38  42
ENDBRANCH  32  34
ENDBRANCH  20  32
TORSDOF 13
ENDMDL
MODEL 4
REMARK VINA RESULT:    -5.618      5.246     13.353
REMARK INTER + INTRA:         -11.974
REMARK INTER:                  -9.453
REMARK INTRA:                  -2.521
REMARK UNBOUND:                -2.415
REMARK  Name = ./IMPHY000008_3D.pdb
REMARK  22 active torsions:
REMARK  status: ('A' for Active; 'I' for Inactive)
REMARK    1  A    between atoms: O_2  and  C_21
REMARK    2  A    between atoms: O_2  and  C_36
REMARK    3  A    between atoms: O_3  and  C_23
REMARK    4  A    between atoms: O_3  and  C_37
REMARK    5  A    between atoms: O_4  and  C_34
REMARK    6  A    between atoms: O_4  and  C_38
REMARK    7  A    between atoms: O_9  and  C_42
REMARK    8  A    between atoms: O_9  and  C_47
REMARK    9  A    between atoms: O_10  and  C_44
REMARK   10  A    between atoms: O_10  and  C_46
REMARK   11  A    between atoms: O_12  and  C_48
REMARK   12  A    between atoms: O_13  and  C_49
REMARK   13  A    between atoms: O_13  and  C_53
REMARK   14  A    between atoms: O_14  and  C_51
REMARK   15  A    between atoms: C_17  and  C_28
REMARK   16  A    between atoms: C_19  and  C_30
REMARK   17  A    between atoms: C_24  and  C_33
REMARK   18  A    between atoms: C_33  and  C_35
REMARK   19  A    between atoms: C_36  and  C_39
REMARK   20  A    between atoms: C_37  and  C_40
REMARK   21  A    between atoms: C_43  and  C_45
REMARK   22  A    between atoms: C_50  and  C_52
REMARK                            x       y       z     vdW  Elec       q    Type
REMARK                         _______ _______ _______ _____ _____    ______ ____
ROOT
ATOM      1  O   UNL     1     -19.493  -0.370   1.125  0.00  0.00    +0.000 OA
ATOM      2  C   UNL     1     -18.894   0.630   0.324  0.00  0.00    +0.000 C 
ATOM      3  C   UNL     1     -20.271   0.833   0.959  0.00  0.00    +0.000 C 
ATOM      4  C   UNL     1     -17.574   1.148   0.880  0.00  0.00    +0.000 C 
ATOM      5  C   UNL     1     -20.403   1.845   2.084  0.00  0.00    +0.000 C 
ATOM      6  C   UNL     1     -21.381   1.321   3.209  0.00  0.00    +0.000 C 
ATOM      7  C   UNL     1     -18.815   0.555  -1.155  0.00  0.00    +0.000 C 
ATOM      8  C   UNL     1     -17.777   1.765   2.299  0.00  0.00    +0.000 C 
ATOM      9  C   UNL     1     -21.584   0.471   0.305  0.00  0.00    +0.000 C 
ATOM     10  C   UNL     1     -19.082   2.563   2.479  0.00  0.00    +0.000 C 
ATOM     11  C   UNL     1     -17.055   2.034  -0.329  0.00  0.00    +0.000 C 
ATOM     12  C   UNL     1     -22.737   0.954   2.504  0.00  0.00    +0.000 C 
ATOM     13  C   UNL     1     -18.119   1.883  -1.442  0.00  0.00    +0.000 C 
ATOM     14  C   UNL     1     -22.564  -0.056   1.359  0.00  0.00    +0.000 C 
ATOM     15  C   UNL     1     -16.569  -0.041   0.996  0.00  0.00    +0.000 C 
ATOM     16  C   UNL     1     -21.715   2.439   4.238  0.00  0.00    +0.000 C 
ATOM     17  C   UNL     1     -20.777   0.127   3.974  0.00  0.00    +0.000 C 
ATOM     18  C   UNL     1     -23.827   0.507   3.489  0.00  0.00    +0.000 C 
ATOM     19  C   UNL     1     -22.816   2.049   5.227  0.00  0.00    +0.000 C 
ATOM     20  C   UNL     1     -24.105   1.588   4.542  0.00  0.00    +0.000 C 
ENDROOT
BRANCH  11  22
ATOM     21  O   UNL     1     -17.160   4.431  -0.619  0.00  0.00    +0.000 OA
ATOM     22  C   UNL     1     -16.610   3.473  -0.076  0.00  0.00    +0.000 C 
ATOM     23  C   UNL     1     -15.562   3.722   0.981  0.00  0.00    +0.000 C 
ENDBRANCH  11  22
BRANCH   8  24
ATOM     24  O   UNL     1     -17.734   0.704   3.293  0.00  0.00    +0.000 OA
BRANCH  24  26
ATOM     25  O   UNL     1     -17.652   0.746   5.589  0.00  0.00    +0.000 OA
ATOM     26  C   UNL     1     -17.174   1.008   4.495  0.00  0.00    +0.000 C 
ATOM     27  C   UNL     1     -15.886   1.746   4.291  0.00  0.00    +0.000 C 
ENDBRANCH  24  26
ENDBRANCH   8  24
BRANCH  10  28
ATOM     28  O   UNL     1     -18.955   3.749   1.640  0.00  0.00    +0.000 OA
BRANCH  28  30
ATOM     29  O   UNL     1     -18.163   5.468   2.949  0.00  0.00    +0.000 OA
ATOM     30  C   UNL     1     -19.039   4.953   2.271  0.00  0.00    +0.000 C 
ATOM     31  C   UNL     1     -20.384   5.566   2.030  0.00  0.00    +0.000 C 
ENDBRANCH  28  30
ENDBRANCH  10  28
BRANCH  20  32
ATOM     32  O   UNL     1     -24.970   1.106   5.575  0.00  0.00    +0.000 OA
BRANCH  32  34
ATOM     33  O   UNL     1     -25.294   1.739   7.815  0.00  0.00    +0.000 OA
ATOM     34  C   UNL     1     -25.468   2.112   6.455  0.00  0.00    +0.000 C 
ATOM     35  C   UNL     1     -26.954   2.257   6.170  0.00  0.00    +0.000 C 
ATOM     36  C   UNL     1     -27.596   3.307   7.074  0.00  0.00    +0.000 C 
ATOM     37  C   UNL     1     -25.728   2.765   8.707  0.00  0.00    +0.000 C 
ATOM     38  C   UNL     1     -27.236   3.062   8.561  0.00  0.00    +0.000 C 
ATOM     39  C   UNL     1     -25.386   2.308  10.123  0.00  0.00    +0.000 C 
BRANCH  36  40
ATOM     40  O   UNL     1     -29.027   3.237   6.925  0.00  0.00    +0.000 OA
ATOM     41  C   UNL     1     -29.458   3.288   5.571  0.00  0.00    +0.000 C 
ENDBRANCH  36  40
BRANCH  38  42
ATOM     42  O   UNL     1     -27.499   4.208   9.388  0.00  0.00    +0.000 OA
BRANCH  42  44
ATOM     43  O   UNL     1     -26.165   6.098   9.590  0.00  0.00    +0.000 OA
ATOM     44  C   UNL     1     -27.169   5.467   8.797  0.00  0.00    +0.000 C 
ATOM     45  C   UNL     1     -28.457   6.335   8.785  0.00  0.00    +0.000 C 
ATOM     46  C   UNL     1     -28.146   7.789   9.213  0.00  0.00    +0.000 C 
ATOM     47  C   UNL     1     -25.676   7.297   8.967  0.00  0.00    +0.000 C 
ATOM     48  C   UNL     1     -26.827   8.242   8.571  0.00  0.00    +0.000 C 
ATOM     49  C   UNL     1     -24.751   7.957   9.983  0.00  0.00    +0.000 C 
BRANCH  45  50
ATOM     50  O   UNL     1     -29.053   6.292   7.472  0.00  0.00    +0.000 OA
ATOM     51  H   UNL     1     -28.312   6.185   6.842  0.00  0.00    +0.000 HD
ENDBRANCH  45  50
BRANCH  46  52
ATOM     52  O   UNL     1     -29.155   8.734   8.805  0.00  0.00    +0.000 OA
ATOM     53  C   UNL     1     -29.042   9.990   9.465  0.00  0.00    +0.000 C 
ENDBRANCH  46  52
BRANCH  48  54
ATOM     54  O   UNL     1     -27.007   8.220   7.139  0.00  0.00    +0.000 OA
ATOM     55  H   UNL     1     -26.854   7.284   6.890  0.00  0.00    +0.000 HD
ENDBRANCH  48  54
ENDBRANCH  42  44
ENDBRANCH  38  42
ENDBRANCH  32  34
ENDBRANCH  20  32
TORSDOF 13
ENDMDL
MODEL 5
REMARK VINA RESULT:    -5.596      7.589     11.765
REMARK INTER + INTRA:         -11.937
REMARK INTER:                 -11.076
REMARK INTRA:                  -0.861
REMARK UNBOUND:                -2.415
REMARK  Name = ./IMPHY000008_3D.pdb
REMARK  22 active torsions:
REMARK  status: ('A' for Active; 'I' for Inactive)
REMARK    1  A    between atoms: O_2  and  C_21
REMARK    2  A    between atoms: O_2  and  C_36
REMARK    3  A    between atoms: O_3  and  C_23
REMARK    4  A    between atoms: O_3  and  C_37
REMARK    5  A    between atoms: O_4  and  C_34
REMARK    6  A    between atoms: O_4  and  C_38
REMARK    7  A    between atoms: O_9  and  C_42
REMARK    8  A    between atoms: O_9  and  C_47
REMARK    9  A    between atoms: O_10  and  C_44
REMARK   10  A    between atoms: O_10  and  C_46
REMARK   11  A    between atoms: O_12  and  C_48
REMARK   12  A    between atoms: O_13  and  C_49
REMARK   13  A    between atoms: O_13  and  C_53
REMARK   14  A    between atoms: O_14  and  C_51
REMARK   15  A    between atoms: C_17  and  C_28
REMARK   16  A    between atoms: C_19  and  C_30
REMARK   17  A    between atoms: C_24  and  C_33
REMARK   18  A    between atoms: C_33  and  C_35
REMARK   19  A    between atoms: C_36  and  C_39
REMARK   20  A    between atoms: C_37  and  C_40
REMARK   21  A    between atoms: C_43  and  C_45
REMARK   22  A    between atoms: C_50  and  C_52
REMARK                            x       y       z     vdW  Elec       q    Type
REMARK                         _______ _______ _______ _____ _____    ______ ____
ROOT
ATOM      1  O   UNL     1     -18.705   3.746   4.144  0.00  0.00    +0.000 OA
ATOM      2  C   UNL     1     -18.621   3.888   2.740  0.00  0.00    +0.000 C 
ATOM      3  C   UNL     1     -17.560   4.481   3.669  0.00  0.00    +0.000 C 
ATOM      4  C   UNL     1     -18.512   2.563   1.998  0.00  0.00    +0.000 C 
ATOM      5  C   UNL     1     -16.173   3.861   3.666  0.00  0.00    +0.000 C 
ATOM      6  C   UNL     1     -15.575   3.799   5.127  0.00  0.00    +0.000 C 
ATOM      7  C   UNL     1     -19.465   4.826   1.961  0.00  0.00    +0.000 C 
ATOM      8  C   UNL     1     -17.240   1.779   2.451  0.00  0.00    +0.000 C 
ATOM      9  C   UNL     1     -17.606   5.874   4.251  0.00  0.00    +0.000 C 
ATOM     10  C   UNL     1     -15.997   2.652   2.705  0.00  0.00    +0.000 C 
ATOM     11  C   UNL     1     -18.686   3.034   0.493  0.00  0.00    +0.000 C 
ATOM     12  C   UNL     1     -15.633   5.258   5.709  0.00  0.00    +0.000 C 
ATOM     13  C   UNL     1     -18.915   4.563   0.561  0.00  0.00    +0.000 C 
ATOM     14  C   UNL     1     -17.046   5.862   5.678  0.00  0.00    +0.000 C 
ATOM     15  C   UNL     1     -19.769   1.694   2.318  0.00  0.00    +0.000 C 
ATOM     16  C   UNL     1     -14.073   3.397   5.110  0.00  0.00    +0.000 C 
ATOM     17  C   UNL     1     -16.335   2.788   6.008  0.00  0.00    +0.000 C 
ATOM     18  C   UNL     1     -15.002   5.377   7.104  0.00  0.00    +0.000 C 
ATOM     19  C   UNL     1     -13.392   3.523   6.476  0.00  0.00    +0.000 C 
ATOM     20  C   UNL     1     -13.538   4.916   7.095  0.00  0.00    +0.000 C 
ENDROOT
BRANCH  11  22
ATOM     21  O   UNL     1     -17.339   1.418  -0.696  0.00  0.00    +0.000 OA
ATOM     22  C   UNL     1     -17.671   2.596  -0.560  0.00  0.00    +0.000 C 
ATOM     23  C   UNL     1     -17.175   3.623  -1.548  0.00  0.00    +0.000 C 
ENDBRANCH  11  22
BRANCH   8  24
ATOM     24  O   UNL     1     -17.545   1.032   3.661  0.00  0.00    +0.000 OA
BRANCH  24  26
ATOM     25  O   UNL     1     -16.480  -0.841   2.863  0.00  0.00    +0.000 OA
ATOM     26  C   UNL     1     -17.003  -0.212   3.770  0.00  0.00    +0.000 C 
ATOM     27  C   UNL     1     -17.164  -0.723   5.169  0.00  0.00    +0.000 C 
ENDBRANCH  24  26
ENDBRANCH   8  24
BRANCH  10  28
ATOM     28  O   UNL     1     -15.592   3.175   1.406  0.00  0.00    +0.000 OA
BRANCH  28  30
ATOM     29  O   UNL     1     -13.712   4.418   0.941  0.00  0.00    +0.000 OA
ATOM     30  C   UNL     1     -14.256   3.359   1.212  0.00  0.00    +0.000 C 
ATOM     31  C   UNL     1     -13.533   2.056   1.360  0.00  0.00    +0.000 C 
ENDBRANCH  28  30
ENDBRANCH  10  28
BRANCH  20  32
ATOM     32  O   UNL     1     -13.004   4.834   8.420  0.00  0.00    +0.000 OA
BRANCH  32  34
ATOM     33  O   UNL     1     -15.207   4.476   9.156  0.00  0.00    +0.000 OA
ATOM     34  C   UNL     1     -13.950   5.065   9.462  0.00  0.00    +0.000 C 
ATOM     35  C   UNL     1     -14.126   6.570   9.579  0.00  0.00    +0.000 C 
ATOM     36  C   UNL     1     -15.137   6.930  10.665  0.00  0.00    +0.000 C 
ATOM     37  C   UNL     1     -16.143   4.642  10.220  0.00  0.00    +0.000 C 
ATOM     38  C   UNL     1     -16.452   6.130  10.495  0.00  0.00    +0.000 C 
ATOM     39  C   UNL     1     -17.406   3.875   9.834  0.00  0.00    +0.000 C 
BRANCH  36  40
ATOM     40  O   UNL     1     -15.435   8.337  10.575  0.00  0.00    +0.000 OA
ATOM     41  C   UNL     1     -14.293   9.168  10.739  0.00  0.00    +0.000 C 
ENDBRANCH  36  40
BRANCH  38  42
ATOM     42  O   UNL     1     -17.270   6.155  11.677  0.00  0.00    +0.000 OA
BRANCH  42  44
ATOM     43  O   UNL     1     -16.834   4.897  13.579  0.00  0.00    +0.000 OA
ATOM     44  C   UNL     1     -16.549   6.124  12.910  0.00  0.00    +0.000 C 
ATOM     45  C   UNL     1     -17.036   7.322  13.772  0.00  0.00    +0.000 C 
ATOM     46  C   UNL     1     -17.243   6.894  15.245  0.00  0.00    +0.000 C 
ATOM     47  C   UNL     1     -16.020   4.733  14.752  0.00  0.00    +0.000 C 
ATOM     48  C   UNL     1     -16.098   5.966  15.675  0.00  0.00    +0.000 C 
ATOM     49  C   UNL     1     -16.540   3.487  15.459  0.00  0.00    +0.000 C 
BRANCH  45  50
ATOM     50  O   UNL     1     -16.087   8.404  13.670  0.00  0.00    +0.000 OA
ATOM     51  H   UNL     1     -15.516   8.191  12.906  0.00  0.00    +0.000 HD
ENDBRANCH  45  50
BRANCH  46  52
ATOM     52  O   UNL     1     -17.252   8.001  16.167  0.00  0.00    +0.000 OA
ATOM     53  C   UNL     1     -18.421   8.043  16.977  0.00  0.00    +0.000 C 
ENDBRANCH  46  52
BRANCH  48  54
ATOM     54  O   UNL     1     -14.870   6.718  15.591  0.00  0.00    +0.000 OA
ATOM     55  H   UNL     1     -14.173   6.074  15.839  0.00  0.00    +0.000 HD
ENDBRANCH  48  54
ENDBRANCH  42  44
ENDBRANCH  38  42
ENDBRANCH  32  34
ENDBRANCH  20  32
TORSDOF 13
ENDMDL
MODEL 6
REMARK VINA RESULT:    -5.525      2.299     11.752
REMARK INTER + INTRA:         -11.816
REMARK INTER:                  -9.249
REMARK INTRA:                  -2.567
REMARK UNBOUND:                -2.415
REMARK  Name = ./IMPHY000008_3D.pdb
REMARK  22 active torsions:
REMARK  status: ('A' for Active; 'I' for Inactive)
REMARK    1  A    between atoms: O_2  and  C_21
REMARK    2  A    between atoms: O_2  and  C_36
REMARK    3  A    between atoms: O_3  and  C_23
REMARK    4  A    between atoms: O_3  and  C_37
REMARK    5  A    between atoms: O_4  and  C_34
REMARK    6  A    between atoms: O_4  and  C_38
REMARK    7  A    between atoms: O_9  and  C_42
REMARK    8  A    between atoms: O_9  and  C_47
REMARK    9  A    between atoms: O_10  and  C_44
REMARK   10  A    between atoms: O_10  and  C_46
REMARK   11  A    between atoms: O_12  and  C_48
REMARK   12  A    between atoms: O_13  and  C_49
REMARK   13  A    between atoms: O_13  and  C_53
REMARK   14  A    between atoms: O_14  and  C_51
REMARK   15  A    between atoms: C_17  and  C_28
REMARK   16  A    between atoms: C_19  and  C_30
REMARK   17  A    between atoms: C_24  and  C_33
REMARK   18  A    between atoms: C_33  and  C_35
REMARK   19  A    between atoms: C_36  and  C_39
REMARK   20  A    between atoms: C_37  and  C_40
REMARK   21  A    between atoms: C_43  and  C_45
REMARK   22  A    between atoms: C_50  and  C_52
REMARK                            x       y       z     vdW  Elec       q    Type
REMARK                         _______ _______ _______ _____ _____    ______ ____
ROOT
ATOM      1  O   UNL     1     -16.046   6.772  11.173  0.00  0.00    +0.000 OA
ATOM      2  C   UNL     1     -14.922   5.944  11.398  0.00  0.00    +0.000 C 
ATOM      3  C   UNL     1     -16.304   5.580  11.942  0.00  0.00    +0.000 C 
ATOM      4  C   UNL     1     -14.299   5.401  10.118  0.00  0.00    +0.000 C 
ATOM      5  C   UNL     1     -17.028   4.392  11.331  0.00  0.00    +0.000 C 
ATOM      6  C   UNL     1     -18.575   4.682  11.188  0.00  0.00    +0.000 C 
ATOM      7  C   UNL     1     -13.852   6.264  12.374  0.00  0.00    +0.000 C 
ATOM      8  C   UNL     1     -15.334   4.552   9.317  0.00  0.00    +0.000 C 
ATOM      9  C   UNL     1     -16.830   5.986  13.298  0.00  0.00    +0.000 C 
ATOM     10  C   UNL     1     -16.264   3.678  10.181  0.00  0.00    +0.000 C 
ATOM     11  C   UNL     1     -12.964   4.748  10.675  0.00  0.00    +0.000 C 
ATOM     12  C   UNL     1     -19.097   5.099  12.611  0.00  0.00    +0.000 C 
ATOM     13  C   UNL     1     -12.967   5.032  12.196  0.00  0.00    +0.000 C 
ATOM     14  C   UNL     1     -18.330   6.289  13.207  0.00  0.00    +0.000 C 
ATOM     15  C   UNL     1     -13.843   6.599   9.225  0.00  0.00    +0.000 C 
ATOM     16  C   UNL     1     -19.360   3.397  10.796  0.00  0.00    +0.000 C 
ATOM     17  C   UNL     1     -18.853   5.761  10.123  0.00  0.00    +0.000 C 
ATOM     18  C   UNL     1     -20.614   5.330  12.651  0.00  0.00    +0.000 C 
ATOM     19  C   UNL     1     -20.880   3.572  10.847  0.00  0.00    +0.000 C 
ATOM     20  C   UNL     1     -21.382   4.081  12.200  0.00  0.00    +0.000 C 
ENDROOT
BRANCH  11  22
ATOM     21  O   UNL     1     -12.521   2.941   9.134  0.00  0.00    +0.000 OA
ATOM     22  C   UNL     1     -12.615   3.309  10.305  0.00  0.00    +0.000 C 
ATOM     23  C   UNL     1     -12.237   2.356  11.412  0.00  0.00    +0.000 C 
ENDBRANCH  11  22
BRANCH   8  24
ATOM     24  O   UNL     1     -16.149   5.437   8.499  0.00  0.00    +0.000 OA
BRANCH  24  26
ATOM     25  O   UNL     1     -17.121   3.948   7.045  0.00  0.00    +0.000 OA
ATOM     26  C   UNL     1     -16.509   4.981   7.269  0.00  0.00    +0.000 C 
ATOM     27  C   UNL     1     -16.019   5.919   6.208  0.00  0.00    +0.000 C 
ENDBRANCH  24  26
ENDBRANCH   8  24
BRANCH  10  28
ATOM     28  O   UNL     1     -15.419   2.653  10.781  0.00  0.00    +0.000 OA
BRANCH  28  30
ATOM     29  O   UNL     1     -16.561   0.781  11.479  0.00  0.00    +0.000 OA
ATOM     30  C   UNL     1     -15.854   1.366  10.674  0.00  0.00    +0.000 C 
ATOM     31  C   UNL     1     -15.321   0.747   9.418  0.00  0.00    +0.000 C 
ENDBRANCH  28  30
ENDBRANCH  10  28
BRANCH  20  32
ATOM     32  O   UNL     1     -22.779   4.349  12.045  0.00  0.00    +0.000 OA
BRANCH  32  34
ATOM     33  O   UNL     1     -23.512   6.576  11.894  0.00  0.00    +0.000 OA
ATOM     34  C   UNL     1     -23.087   5.431  11.168  0.00  0.00    +0.000 C 
ATOM     35  C   UNL     1     -24.222   4.968  10.269  0.00  0.00    +0.000 C 
ATOM     36  C   UNL     1     -24.644   6.064   9.293  0.00  0.00    +0.000 C 
ATOM     37  C   UNL     1     -23.759   7.688  11.033  0.00  0.00    +0.000 C 
ATOM     38  C   UNL     1     -24.897   7.403  10.029  0.00  0.00    +0.000 C 
ATOM     39  C   UNL     1     -24.090   8.884  11.923  0.00  0.00    +0.000 C 
BRANCH  36  40
ATOM     40  O   UNL     1     -25.859   5.658   8.636  0.00  0.00    +0.000 OA
ATOM     41  C   UNL     1     -26.900   5.304   9.538  0.00  0.00    +0.000 C 
ENDBRANCH  36  40
BRANCH  38  42
ATOM     42  O   UNL     1     -24.930   8.527   9.133  0.00  0.00    +0.000 OA
BRANCH  42  44
ATOM     43  O   UNL     1     -27.038   8.712  10.087  0.00  0.00    +0.000 OA
ATOM     44  C   UNL     1     -26.192   9.190   9.042  0.00  0.00    +0.000 C 
ATOM     45  C   UNL     1     -26.809   8.842   7.660  0.00  0.00    +0.000 C 
ATOM     46  C   UNL     1     -28.318   8.522   7.794  0.00  0.00    +0.000 C 
ATOM     47  C   UNL     1     -28.270   9.451  10.148  0.00  0.00    +0.000 C 
ATOM     48  C   UNL     1     -28.967   9.510   8.774  0.00  0.00    +0.000 C 
ATOM     49  C   UNL     1     -29.143   8.737  11.173  0.00  0.00    +0.000 C 
BRANCH  45  50
ATOM     50  O   UNL     1     -26.586   9.935   6.745  0.00  0.00    +0.000 OA
ATOM     51  H   UNL     1     -26.186   9.539   5.945  0.00  0.00    +0.000 HD
ENDBRANCH  45  50
BRANCH  46  52
ATOM     52  O   UNL     1     -29.039   8.632   6.551  0.00  0.00    +0.000 OA
ATOM     53  C   UNL     1     -30.381   8.166   6.642  0.00  0.00    +0.000 C 
ENDBRANCH  46  52
BRANCH  48  54
ATOM     54  O   UNL     1     -28.832  10.833   8.214  0.00  0.00    +0.000 OA
ATOM     55  H   UNL     1     -28.643  10.677   7.265  0.00  0.00    +0.000 HD
ENDBRANCH  48  54
ENDBRANCH  42  44
ENDBRANCH  38  42
ENDBRANCH  32  34
ENDBRANCH  20  32
TORSDOF 13
ENDMDL
MODEL 7
REMARK VINA RESULT:    -5.376      1.459      2.302
REMARK INTER + INTRA:         -11.562
REMARK INTER:                  -9.422
REMARK INTRA:                  -2.139
REMARK UNBOUND:                -2.415
REMARK  Name = ./IMPHY000008_3D.pdb
REMARK  22 active torsions:
REMARK  status: ('A' for Active; 'I' for Inactive)
REMARK    1  A    between atoms: O_2  and  C_21
REMARK    2  A    between atoms: O_2  and  C_36
REMARK    3  A    between atoms: O_3  and  C_23
REMARK    4  A    between atoms: O_3  and  C_37
REMARK    5  A    between atoms: O_4  and  C_34
REMARK    6  A    between atoms: O_4  and  C_38
REMARK    7  A    between atoms: O_9  and  C_42
REMARK    8  A    between atoms: O_9  and  C_47
REMARK    9  A    between atoms: O_10  and  C_44
REMARK   10  A    between atoms: O_10  and  C_46
REMARK   11  A    between atoms: O_12  and  C_48
REMARK   12  A    between atoms: O_13  and  C_49
REMARK   13  A    between atoms: O_13  and  C_53
REMARK   14  A    between atoms: O_14  and  C_51
REMARK   15  A    between atoms: C_17  and  C_28
REMARK   16  A    between atoms: C_19  and  C_30
REMARK   17  A    between atoms: C_24  and  C_33
REMARK   18  A    between atoms: C_33  and  C_35
REMARK   19  A    between atoms: C_36  and  C_39
REMARK   20  A    between atoms: C_37  and  C_40
REMARK   21  A    between atoms: C_43  and  C_45
REMARK   22  A    between atoms: C_50  and  C_52
REMARK                            x       y       z     vdW  Elec       q    Type
REMARK                         _______ _______ _______ _____ _____    ______ ____
ROOT
ATOM      1  O   UNL     1     -26.536   9.550  13.277  0.00  0.00    +0.000 OA
ATOM      2  C   UNL     1     -26.909  10.524  12.323  0.00  0.00    +0.000 C 
ATOM      3  C   UNL     1     -25.563   9.804  12.244  0.00  0.00    +0.000 C 
ATOM      4  C   UNL     1     -28.161  10.160  11.535  0.00  0.00    +0.000 C 
ATOM      5  C   UNL     1     -25.341   8.814  11.112  0.00  0.00    +0.000 C 
ATOM      6  C   UNL     1     -24.538   7.549  11.612  0.00  0.00    +0.000 C 
ATOM      7  C   UNL     1     -26.903  11.982  12.597  0.00  0.00    +0.000 C 
ATOM      8  C   UNL     1     -27.954   8.822  10.759  0.00  0.00    +0.000 C 
ATOM      9  C   UNL     1     -24.287  10.287  12.892  0.00  0.00    +0.000 C 
ATOM     10  C   UNL     1     -26.550   8.634  10.152  0.00  0.00    +0.000 C 
ATOM     11  C   UNL     1     -28.448  11.516  10.763  0.00  0.00    +0.000 C 
ATOM     12  C   UNL     1     -23.217   8.079  12.280  0.00  0.00    +0.000 C 
ATOM     13  C   UNL     1     -27.352  12.502  11.233  0.00  0.00    +0.000 C 
ATOM     14  C   UNL     1     -23.477   9.092  13.406  0.00  0.00    +0.000 C 
ATOM     15  C   UNL     1     -29.352   9.977  12.528  0.00  0.00    +0.000 C 
ATOM     16  C   UNL     1     -24.094   6.651  10.422  0.00  0.00    +0.000 C 
ATOM     17  C   UNL     1     -25.377   6.690  12.578  0.00  0.00    +0.000 C 
ATOM     18  C   UNL     1     -22.281   6.952  12.742  0.00  0.00    +0.000 C 
ATOM     19  C   UNL     1     -23.138   5.526  10.830  0.00  0.00    +0.000 C 
ATOM     20  C   UNL     1     -21.900   6.030  11.576  0.00  0.00    +0.000 C 
ENDROOT
BRANCH  11  22
ATOM     21  O   UNL     1     -27.925  12.094   8.476  0.00  0.00    +0.000 OA
ATOM     22  C   UNL     1     -28.668  11.493   9.252  0.00  0.00    +0.000 C 
ATOM     23  C   UNL     1     -29.742  10.589   8.698  0.00  0.00    +0.000 C 
ENDBRANCH  11  22
BRANCH   8  24
ATOM     24  O   UNL     1     -28.234   7.704  11.647  0.00  0.00    +0.000 OA
BRANCH  24  26
ATOM     25  O   UNL     1     -28.435   5.442  11.301  0.00  0.00    +0.000 OA
ATOM     26  C   UNL     1     -28.782   6.593  11.085  0.00  0.00    +0.000 C 
ATOM     27  C   UNL     1     -29.868   6.983  10.129  0.00  0.00    +0.000 C 
ENDBRANCH  24  26
ENDBRANCH   8  24
BRANCH  10  28
ATOM     28  O   UNL     1     -26.427   9.630   9.094  0.00  0.00    +0.000 OA
BRANCH  28  30
ATOM     29  O   UNL     1     -25.804   9.812   6.886  0.00  0.00    +0.000 OA
ATOM     30  C   UNL     1     -26.205   9.157   7.835  0.00  0.00    +0.000 C 
ATOM     31  C   UNL     1     -26.543   7.700   7.768  0.00  0.00    +0.000 C 
ENDBRANCH  28  30
ENDBRANCH  10  28
BRANCH  20  32
ATOM     32  O   UNL     1     -21.195   4.871  12.031  0.00  0.00    +0.000 OA
BRANCH  32  34
ATOM     33  O   UNL     1     -20.165   3.667  10.295  0.00  0.00    +0.000 OA
ATOM     34  C   UNL     1     -19.973   4.606  11.344  0.00  0.00    +0.000 C 
ATOM     35  C   UNL     1     -19.008   4.019  12.362  0.00  0.00    +0.000 C 
ATOM     36  C   UNL     1     -17.662   3.683  11.724  0.00  0.00    +0.000 C 
ATOM     37  C   UNL     1     -18.964   3.444   9.557  0.00  0.00    +0.000 C 
ATOM     38  C   UNL     1     -17.845   2.843  10.436  0.00  0.00    +0.000 C 
ATOM     39  C   UNL     1     -19.314   2.519   8.394  0.00  0.00    +0.000 C 
BRANCH  36  40
ATOM     40  O   UNL     1     -16.878   2.925  12.666  0.00  0.00    +0.000 OA
ATOM     41  C   UNL     1     -17.036   3.358  14.011  0.00  0.00    +0.000 C 
ENDBRANCH  36  40
BRANCH  38  42
ATOM     42  O   UNL     1     -16.663   2.821   9.618  0.00  0.00    +0.000 OA
BRANCH  42  44
ATOM     43  O   UNL     1     -15.908   4.256   7.956  0.00  0.00    +0.000 OA
ATOM     44  C   UNL     1     -16.083   4.102   9.364  0.00  0.00    +0.000 C 
ATOM     45  C   UNL     1     -14.703   4.146  10.076  0.00  0.00    +0.000 C 
ATOM     46  C   UNL     1     -13.632   4.791   9.165  0.00  0.00    +0.000 C 
ATOM     47  C   UNL     1     -15.473   5.585   7.620  0.00  0.00    +0.000 C 
ATOM     48  C   UNL     1     -14.236   6.002   8.440  0.00  0.00    +0.000 C 
ATOM     49  C   UNL     1     -15.159   5.564   6.129  0.00  0.00    +0.000 C 
BRANCH  45  50
ATOM     50  O   UNL     1     -14.828   4.860  11.323  0.00  0.00    +0.000 OA
ATOM     51  H   UNL     1     -14.160   5.573  11.294  0.00  0.00    +0.000 HD
ENDBRANCH  45  50
BRANCH  46  52
ATOM     52  O   UNL     1     -12.479   5.268   9.886  0.00  0.00    +0.000 OA
ATOM     53  C   UNL     1     -11.756   4.227  10.534  0.00  0.00    +0.000 C 
ENDBRANCH  46  52
BRANCH  48  54
ATOM     54  O   UNL     1     -14.617   6.966   9.444  0.00  0.00    +0.000 OA
ATOM     55  H   UNL     1     -15.553   7.175   9.235  0.00  0.00    +0.000 HD
ENDBRANCH  48  54
ENDBRANCH  42  44
ENDBRANCH  38  42
ENDBRANCH  32  34
ENDBRANCH  20  32
TORSDOF 13
ENDMDL
MODEL 8
REMARK VINA RESULT:    -5.261      6.946     14.814
REMARK INTER + INTRA:         -11.366
REMARK INTER:                  -9.009
REMARK INTRA:                  -2.357
REMARK UNBOUND:                -2.415
REMARK  Name = ./IMPHY000008_3D.pdb
REMARK  22 active torsions:
REMARK  status: ('A' for Active; 'I' for Inactive)
REMARK    1  A    between atoms: O_2  and  C_21
REMARK    2  A    between atoms: O_2  and  C_36
REMARK    3  A    between atoms: O_3  and  C_23
REMARK    4  A    between atoms: O_3  and  C_37
REMARK    5  A    between atoms: O_4  and  C_34
REMARK    6  A    between atoms: O_4  and  C_38
REMARK    7  A    between atoms: O_9  and  C_42
REMARK    8  A    between atoms: O_9  and  C_47
REMARK    9  A    between atoms: O_10  and  C_44
REMARK   10  A    between atoms: O_10  and  C_46
REMARK   11  A    between atoms: O_12  and  C_48
REMARK   12  A    between atoms: O_13  and  C_49
REMARK   13  A    between atoms: O_13  and  C_53
REMARK   14  A    between atoms: O_14  and  C_51
REMARK   15  A    between atoms: C_17  and  C_28
REMARK   16  A    between atoms: C_19  and  C_30
REMARK   17  A    between atoms: C_24  and  C_33
REMARK   18  A    between atoms: C_33  and  C_35
REMARK   19  A    between atoms: C_36  and  C_39
REMARK   20  A    between atoms: C_37  and  C_40
REMARK   21  A    between atoms: C_43  and  C_45
REMARK   22  A    between atoms: C_50  and  C_52
REMARK                            x       y       z     vdW  Elec       q    Type
REMARK                         _______ _______ _______ _____ _____    ______ ____
ROOT
ATOM      1  O   UNL     1     -29.281  12.443  10.785  0.00  0.00    +0.000 OA
ATOM      2  C   UNL     1     -28.542  11.908   9.704  0.00  0.00    +0.000 C 
ATOM      3  C   UNL     1     -27.851  12.423  10.968  0.00  0.00    +0.000 C 
ATOM      4  C   UNL     1     -28.870  10.453   9.401  0.00  0.00    +0.000 C 
ATOM      5  C   UNL     1     -27.191  11.412  11.890  0.00  0.00    +0.000 C 
ATOM      6  C   UNL     1     -27.419  11.791  13.407  0.00  0.00    +0.000 C 
ATOM      7  C   UNL     1     -28.304  12.639   8.436  0.00  0.00    +0.000 C 
ATOM      8  C   UNL     1     -28.577   9.550  10.640  0.00  0.00    +0.000 C 
ATOM      9  C   UNL     1     -27.372  13.841  11.172  0.00  0.00    +0.000 C 
ATOM     10  C   UNL     1     -27.314   9.931  11.435  0.00  0.00    +0.000 C 
ATOM     11  C   UNL     1     -28.095  10.238   8.033  0.00  0.00    +0.000 C 
ATOM     12  C   UNL     1     -26.912  13.268  13.592  0.00  0.00    +0.000 C 
ATOM     13  C   UNL     1     -27.452  11.606   7.701  0.00  0.00    +0.000 C 
ATOM     14  C   UNL     1     -27.585  14.259  12.631  0.00  0.00    +0.000 C 
ATOM     15  C   UNL     1     -30.387  10.335   9.050  0.00  0.00    +0.000 C 
ATOM     16  C   UNL     1     -26.550  10.911  14.350  0.00  0.00    +0.000 C 
ATOM     17  C   UNL     1     -28.896  11.625  13.817  0.00  0.00    +0.000 C 
ATOM     18  C   UNL     1     -26.989  13.753  15.047  0.00  0.00    +0.000 C 
ATOM     19  C   UNL     1     -26.575  11.372  15.810  0.00  0.00    +0.000 C 
ATOM     20  C   UNL     1     -26.184  12.842  15.983  0.00  0.00    +0.000 C 
ENDROOT
BRANCH  11  22
ATOM     21  O   UNL     1     -27.531   7.888   8.057  0.00  0.00    +0.000 OA
ATOM     22  C   UNL     1     -27.153   9.046   7.878  0.00  0.00    +0.000 C 
ATOM     23  C   UNL     1     -25.762   9.297   7.350  0.00  0.00    +0.000 C 
ENDBRANCH  11  22
BRANCH   8  24
ATOM     24  O   UNL     1     -29.723   9.582  11.537  0.00  0.00    +0.000 OA
BRANCH  24  26
ATOM     25  O   UNL     1     -29.596   7.316  11.893  0.00  0.00    +0.000 OA
ATOM     26  C   UNL     1     -30.044   8.419  12.166  0.00  0.00    +0.000 C 
ATOM     27  C   UNL     1     -31.061   8.677  13.236  0.00  0.00    +0.000 C 
ENDBRANCH  24  26
ENDBRANCH   8  24
BRANCH  10  28
ATOM     28  O   UNL     1     -26.181   9.640  10.565  0.00  0.00    +0.000 OA
BRANCH  28  30
ATOM     29  O   UNL     1     -24.254   8.385  10.465  0.00  0.00    +0.000 OA
ATOM     30  C   UNL     1     -25.318   8.675  10.990  0.00  0.00    +0.000 C 
ATOM     31  C   UNL     1     -25.871   7.991  12.202  0.00  0.00    +0.000 C 
ENDBRANCH  28  30
ENDBRANCH  10  28
BRANCH  20  32
ATOM     32  O   UNL     1     -26.410  13.168  17.358  0.00  0.00    +0.000 OA
BRANCH  32  34
ATOM     33  O   UNL     1     -27.107  15.233  18.237  0.00  0.00    +0.000 OA
ATOM     34  C   UNL     1     -27.518  14.035  17.593  0.00  0.00    +0.000 C 
ATOM     35  C   UNL     1     -28.481  13.291  18.503  0.00  0.00    +0.000 C 
ATOM     36  C   UNL     1     -29.706  14.141  18.833  0.00  0.00    +0.000 C 
ATOM     37  C   UNL     1     -28.195  16.139  18.418  0.00  0.00    +0.000 C 
ATOM     38  C   UNL     1     -29.295  15.550  19.328  0.00  0.00    +0.000 C 
ATOM     39  C   UNL     1     -27.619  17.425  19.004  0.00  0.00    +0.000 C 
BRANCH  36  40
ATOM     40  O   UNL     1     -30.461  13.486  19.871  0.00  0.00    +0.000 OA
ATOM     41  C   UNL     1     -30.506  12.072  19.730  0.00  0.00    +0.000 C 
ENDBRANCH  36  40
BRANCH  38  42
ATOM     42  O   UNL     1     -30.385  16.487  19.293  0.00  0.00    +0.000 OA
BRANCH  42  44
ATOM     43  O   UNL     1     -30.443  16.309  21.607  0.00  0.00    +0.000 OA
ATOM     44  C   UNL     1     -30.602  17.205  20.508  0.00  0.00    +0.000 C 
ATOM     45  C   UNL     1     -32.055  17.755  20.479  0.00  0.00    +0.000 C 
ATOM     46  C   UNL     1     -32.744  17.563  21.851  0.00  0.00    +0.000 C 
ATOM     47  C   UNL     1     -30.494  17.002  22.865  0.00  0.00    +0.000 C 
ATOM     48  C   UNL     1     -31.751  17.889  22.975  0.00  0.00    +0.000 C 
ATOM     49  C   UNL     1     -30.489  15.925  23.943  0.00  0.00    +0.000 C 
BRANCH  45  50
ATOM     50  O   UNL     1     -32.036  19.145  20.093  0.00  0.00    +0.000 OA
ATOM     51  H   UNL     1     -31.621  19.626  20.837  0.00  0.00    +0.000 HD
ENDBRANCH  45  50
BRANCH  46  52
ATOM     52  O   UNL     1     -33.887  18.421  22.043  0.00  0.00    +0.000 OA
ATOM     53  C   UNL     1     -34.763  17.962  23.065  0.00  0.00    +0.000 C 
ENDBRANCH  46  52
BRANCH  48  54
ATOM     54  O   UNL     1     -31.381  19.278  22.844  0.00  0.00    +0.000 OA
ATOM     55  H   UNL     1     -30.535  19.351  23.334  0.00  0.00    +0.000 HD
ENDBRANCH  48  54
ENDBRANCH  42  44
ENDBRANCH  38  42
ENDBRANCH  32  34
ENDBRANCH  20  32
TORSDOF 13
ENDMDL
MODEL 9
REMARK VINA RESULT:    -5.168      2.888      5.175
REMARK INTER + INTRA:         -11.208
REMARK INTER:                  -8.499
REMARK INTRA:                  -2.709
REMARK UNBOUND:                -2.415
REMARK  Name = ./IMPHY000008_3D.pdb
REMARK  22 active torsions:
REMARK  status: ('A' for Active; 'I' for Inactive)
REMARK    1  A    between atoms: O_2  and  C_21
REMARK    2  A    between atoms: O_2  and  C_36
REMARK    3  A    between atoms: O_3  and  C_23
REMARK    4  A    between atoms: O_3  and  C_37
REMARK    5  A    between atoms: O_4  and  C_34
REMARK    6  A    between atoms: O_4  and  C_38
REMARK    7  A    between atoms: O_9  and  C_42
REMARK    8  A    between atoms: O_9  and  C_47
REMARK    9  A    between atoms: O_10  and  C_44
REMARK   10  A    between atoms: O_10  and  C_46
REMARK   11  A    between atoms: O_12  and  C_48
REMARK   12  A    between atoms: O_13  and  C_49
REMARK   13  A    between atoms: O_13  and  C_53
REMARK   14  A    between atoms: O_14  and  C_51
REMARK   15  A    between atoms: C_17  and  C_28
REMARK   16  A    between atoms: C_19  and  C_30
REMARK   17  A    between atoms: C_24  and  C_33
REMARK   18  A    between atoms: C_33  and  C_35
REMARK   19  A    between atoms: C_36  and  C_39
REMARK   20  A    between atoms: C_37  and  C_40
REMARK   21  A    between atoms: C_43  and  C_45
REMARK   22  A    between atoms: C_50  and  C_52
REMARK                            x       y       z     vdW  Elec       q    Type
REMARK                         _______ _______ _______ _____ _____    ______ ____
ROOT
ATOM      1  O   UNL     1     -25.042   8.515  10.014  0.00  0.00    +0.000 OA
ATOM      2  C   UNL     1     -26.368   8.038  10.133  0.00  0.00    +0.000 C 
ATOM      3  C   UNL     1     -25.185   7.267  10.720  0.00  0.00    +0.000 C 
ATOM      4  C   UNL     1     -27.286   8.978  10.903  0.00  0.00    +0.000 C 
ATOM      5  C   UNL     1     -25.048   7.199  12.232  0.00  0.00    +0.000 C 
ATOM      6  C   UNL     1     -23.536   7.320  12.672  0.00  0.00    +0.000 C 
ATOM      7  C   UNL     1     -27.118   7.416   9.015  0.00  0.00    +0.000 C 
ATOM      8  C   UNL     1     -26.754   9.206  12.353  0.00  0.00    +0.000 C 
ATOM      9  C   UNL     1     -24.399   6.205   9.987  0.00  0.00    +0.000 C 
ATOM     10  C   UNL     1     -26.149   7.959  13.025  0.00  0.00    +0.000 C 
ATOM     11  C   UNL     1     -28.701   8.306  10.650  0.00  0.00    +0.000 C 
ATOM     12  C   UNL     1     -22.742   6.205  11.898  0.00  0.00    +0.000 C 
ATOM     13  C   UNL     1     -28.425   7.090   9.734  0.00  0.00    +0.000 C 
ATOM     14  C   UNL     1     -22.919   6.290  10.374  0.00  0.00    +0.000 C 
ATOM     15  C   UNL     1     -27.335  10.356  10.171  0.00  0.00    +0.000 C 
ATOM     16  C   UNL     1     -23.357   7.008  14.186  0.00  0.00    +0.000 C 
ATOM     17  C   UNL     1     -22.977   8.731  12.401  0.00  0.00    +0.000 C 
ATOM     18  C   UNL     1     -21.259   6.139  12.290  0.00  0.00    +0.000 C 
ATOM     19  C   UNL     1     -21.893   6.907  14.619  0.00  0.00    +0.000 C 
ATOM     20  C   UNL     1     -21.089   5.898  13.795  0.00  0.00    +0.000 C 
ENDROOT
BRANCH  11  22
ATOM     21  O   UNL     1     -29.963   8.881  12.629  0.00  0.00    +0.000 OA
ATOM     22  C   UNL     1     -29.619   8.007  11.833  0.00  0.00    +0.000 C 
ATOM     23  C   UNL     1     -30.229   6.630  11.936  0.00  0.00    +0.000 C 
ENDBRANCH  11  22
BRANCH   8  24
ATOM     24  O   UNL     1     -25.753  10.261  12.335  0.00  0.00    +0.000 OA
BRANCH  24  26
ATOM     25  O   UNL     1     -24.666  11.451  13.972  0.00  0.00    +0.000 OA
ATOM     26  C   UNL     1     -25.691  11.070  13.427  0.00  0.00    +0.000 C 
ATOM     27  C   UNL     1     -27.073  11.410  13.895  0.00  0.00    +0.000 C 
ENDBRANCH  24  26
ENDBRANCH   8  24
BRANCH  10  28
ATOM     28  O   UNL     1     -27.255   7.035  13.242  0.00  0.00    +0.000 OA
BRANCH  28  30
ATOM     29  O   UNL     1     -27.749   5.338  14.716  0.00  0.00    +0.000 OA
ATOM     30  C   UNL     1     -27.337   6.462  14.476  0.00  0.00    +0.000 C 
ATOM     31  C   UNL     1     -26.863   7.425  15.521  0.00  0.00    +0.000 C 
ENDBRANCH  28  30
ENDBRANCH  10  28
BRANCH  20  32
ATOM     32  O   UNL     1     -19.724   6.033  14.200  0.00  0.00    +0.000 OA
BRANCH  32  34
ATOM     33  O   UNL     1     -18.062   4.672  13.246  0.00  0.00    +0.000 OA
ATOM     34  C   UNL     1     -18.772   5.899  13.146  0.00  0.00    +0.000 C 
ATOM     35  C   UNL     1     -17.789   7.050  13.284  0.00  0.00    +0.000 C 
ATOM     36  C   UNL     1     -16.709   6.994  12.205  0.00  0.00    +0.000 C 
ATOM     37  C   UNL     1     -17.153   4.494  12.160  0.00  0.00    +0.000 C 
ATOM     38  C   UNL     1     -16.063   5.588  12.130  0.00  0.00    +0.000 C 
ATOM     39  C   UNL     1     -16.540   3.104  12.307  0.00  0.00    +0.000 C 
BRANCH  36  40
ATOM     40  O   UNL     1     -15.687   7.958  12.521  0.00  0.00    +0.000 OA
ATOM     41  C   UNL     1     -15.530   8.963  11.526  0.00  0.00    +0.000 C 
ENDBRANCH  36  40
BRANCH  38  42
ATOM     42  O   UNL     1     -15.326   5.384  10.912  0.00  0.00    +0.000 OA
BRANCH  42  44
ATOM     43  O   UNL     1     -13.663   3.768  10.807  0.00  0.00    +0.000 OA
ATOM     44  C   UNL     1     -13.929   5.141  11.086  0.00  0.00    +0.000 C 
ATOM     45  C   UNL     1     -13.575   5.460  12.565  0.00  0.00    +0.000 C 
ATOM     46  C   UNL     1     -12.633   4.381  13.151  0.00  0.00    +0.000 C 
ATOM     47  C   UNL     1     -12.252   3.492  10.812  0.00  0.00    +0.000 C 
ATOM     48  C   UNL     1     -11.578   3.997  12.104  0.00  0.00    +0.000 C 
ATOM     49  C   UNL     1     -12.114   1.980  10.678  0.00  0.00    +0.000 C 
BRANCH  45  50
ATOM     50  O   UNL     1     -12.981   6.772  12.646  0.00  0.00    +0.000 OA
ATOM     51  H   UNL     1     -12.018   6.627  12.735  0.00  0.00    +0.000 HD
ENDBRANCH  45  50
BRANCH  46  52
ATOM     52  O   UNL     1     -11.918   4.820  14.322  0.00  0.00    +0.000 OA
ATOM     53  C   UNL     1     -12.670   4.677  15.522  0.00  0.00    +0.000 C 
ENDBRANCH  46  52
BRANCH  48  54
ATOM     54  O   UNL     1     -10.796   5.175  11.818  0.00  0.00    +0.000 OA
ATOM     55  H   UNL     1     -11.433   5.795  11.406  0.00  0.00    +0.000 HD
ENDBRANCH  48  54
ENDBRANCH  42  44
ENDBRANCH  38  42
ENDBRANCH  32  34
ENDBRANCH  20  32
TORSDOF 13
ENDMDL
