MODEL 1
REMARK VINA RESULT:    -5.771      0.000      0.000
REMARK INTER + INTRA:         -14.255
REMARK INTER:                 -10.832
REMARK INTRA:                  -3.423
REMARK UNBOUND:                -3.423
REMARK  Name = ./IMPHY000002_3D.pdb
REMARK  25 active torsions:
REMARK  status: ('A' for Active; 'I' for Inactive)
REMARK    1  A    between atoms: O_2  and  C_21
REMARK    2  A    between atoms: O_2  and  C_37
REMARK    3  A    between atoms: O_3  and  C_23
REMARK    4  A    between atoms: O_3  and  C_36
REMARK    5  A    between atoms: O_4  and  C_34
REMARK    6  A    between atoms: O_4  and  C_39
REMARK    7  A    between atoms: O_9  and  C_46
REMARK    8  A    between atoms: O_9  and  C_54
REMARK    9  A    between atoms: O_10  and  C_48
REMARK   10  A    between atoms: O_10  and  C_55
REMARK   11  A    between atoms: O_12  and  C_56
REMARK   12  A    between atoms: O_13  and  C_57
REMARK   13  A    between atoms: O_13  and  C_61
REMARK   14  A    between atoms: O_14  and  C_59
REMARK   15  A    between atoms: C_17  and  C_28
REMARK   16  A    between atoms: C_19  and  C_30
REMARK   17  A    between atoms: C_24  and  C_33
REMARK   18  A    between atoms: C_33  and  C_35
REMARK   19  A    between atoms: C_36  and  C_38
REMARK   20  A    between atoms: C_37  and  C_40
REMARK   21  A    between atoms: C_38  and  C_41
REMARK   22  A    between atoms: C_38  and  C_43
REMARK   23  A    between atoms: C_41  and  C_49
REMARK   24  A    between atoms: C_47  and  C_52
REMARK   25  A    between atoms: C_58  and  C_60
REMARK                            x       y       z     vdW  Elec       q    Type
REMARK                         _______ _______ _______ _____ _____    ______ ____
ROOT
ATOM      1  O   UNL     1     -27.751   7.545   7.353  0.00  0.00    +0.000 OA
ATOM      2  C   UNL     1     -28.774   8.403   7.878  0.00  0.00    +0.000 C 
ATOM      3  C   UNL     1     -28.366   7.108   8.571  0.00  0.00    +0.000 C 
ATOM      4  C   UNL     1     -28.303   9.765   8.340  0.00  0.00    +0.000 C 
ATOM      5  C   UNL     1     -27.490   7.165   9.820  0.00  0.00    +0.000 C 
ATOM      6  C   UNL     1     -26.618   5.837   9.944  0.00  0.00    +0.000 C 
ATOM      7  C   UNL     1     -30.016   8.522   7.036  0.00  0.00    +0.000 C 
ATOM      8  C   UNL     1     -27.662   9.733   9.750  0.00  0.00    +0.000 C 
ATOM      9  C   UNL     1     -29.223   5.883   8.413  0.00  0.00    +0.000 C 
ATOM     10  C   UNL     1     -26.718   8.510   9.941  0.00  0.00    +0.000 C 
ATOM     11  C   UNL     1     -29.632  10.587   8.249  0.00  0.00    +0.000 C 
ATOM     12  C   UNL     1     -27.599   4.616   9.853  0.00  0.00    +0.000 C 
ATOM     13  C   UNL     1     -30.312  10.028   6.987  0.00  0.00    +0.000 C 
ATOM     14  C   UNL     1     -28.404   4.606   8.549  0.00  0.00    +0.000 C 
ATOM     15  C   UNL     1     -27.294  10.342   7.306  0.00  0.00    +0.000 C 
ATOM     16  C   UNL     1     -25.901   5.735  11.322  0.00  0.00    +0.000 C 
ATOM     17  C   UNL     1     -25.534   5.795   8.838  0.00  0.00    +0.000 C 
ATOM     18  C   UNL     1     -26.914   3.261  10.076  0.00  0.00    +0.000 C 
ATOM     19  C   UNL     1     -25.251   4.378  11.595  0.00  0.00    +0.000 C 
ATOM     20  C   UNL     1     -26.220   3.209  11.440  0.00  0.00    +0.000 C 
ENDROOT
BRANCH  11  22
ATOM     21  O   UNL     1     -31.092   9.288   9.684  0.00  0.00    +0.000 OA
ATOM     22  C   UNL     1     -30.612  10.390   9.413  0.00  0.00    +0.000 C 
ATOM     23  C   UNL     1     -31.070  11.632  10.135  0.00  0.00    +0.000 C 
ENDBRANCH  11  22
BRANCH  20  24
ATOM     24  O   UNL     1     -25.454   2.010  11.577  0.00  0.00    +0.000 OA
BRANCH  24  26
ATOM     25  O   UNL     1     -24.953   0.086  10.339  0.00  0.00    +0.000 OA
ATOM     26  C   UNL     1     -24.934   1.507  10.348  0.00  0.00    +0.000 C 
ATOM     27  C   UNL     1     -23.494   1.982  10.241  0.00  0.00    +0.000 C 
ATOM     28  C   UNL     1     -22.835   1.472   8.961  0.00  0.00    +0.000 C 
ATOM     29  C   UNL     1     -24.495  -0.443   9.095  0.00  0.00    +0.000 C 
ATOM     30  C   UNL     1     -23.029  -0.056   8.803  0.00  0.00    +0.000 C 
ATOM     31  C   UNL     1     -24.666  -1.959   9.159  0.00  0.00    +0.000 C 
BRANCH  28  32
ATOM     32  O   UNL     1     -21.426   1.760   9.023  0.00  0.00    +0.000 OA
ATOM     33  C   UNL     1     -21.078   2.650  10.077  0.00  0.00    +0.000 C 
ENDBRANCH  28  32
BRANCH  30  34
ATOM     34  O   UNL     1     -22.757  -0.505   7.464  0.00  0.00    +0.000 OA
BRANCH  34  36
ATOM     35  O   UNL     1     -24.276  -0.576   5.704  0.00  0.00    +0.000 OA
ATOM     36  C   UNL     1     -23.384   0.267   6.436  0.00  0.00    +0.000 C 
ATOM     37  C   UNL     1     -22.267   0.762   5.485  0.00  0.00    +0.000 C 
ATOM     38  C   UNL     1     -22.766   0.816   4.025  0.00  0.00    +0.000 C 
ATOM     39  C   UNL     1     -25.091   0.183   4.794  0.00  0.00    +0.000 C 
ATOM     40  C   UNL     1     -24.256   1.185   3.967  0.00  0.00    +0.000 C 
ATOM     41  C   UNL     1     -25.782  -0.834   3.893  0.00  0.00    +0.000 C 
BRANCH  40  42
ATOM     42  O   UNL     1     -24.443   2.506   4.495  0.00  0.00    +0.000 OA
ATOM     43  H   UNL     1     -24.924   3.005   3.807  0.00  0.00    +0.000 HD
ENDBRANCH  40  42
BRANCH  38  44
ATOM     44  O   UNL     1     -22.021   1.797   3.271  0.00  0.00    +0.000 OA
ATOM     45  C   UNL     1     -21.059   1.200   2.405  0.00  0.00    +0.000 C 
ENDBRANCH  38  44
BRANCH  37  46
ATOM     46  O   UNL     1     -21.778   2.047   5.918  0.00  0.00    +0.000 OA
ATOM     47  H   UNL     1     -20.858   1.900   6.209  0.00  0.00    +0.000 HD
ENDBRANCH  37  46
ENDBRANCH  34  36
ENDBRANCH  30  34
ENDBRANCH  24  26
ENDBRANCH  20  24
BRANCH  10  48
ATOM     48  O   UNL     1     -26.188   8.613  11.289  0.00  0.00    +0.000 OA
BRANCH  48  50
ATOM     49  O   UNL     1     -24.021   8.625  10.517  0.00  0.00    +0.000 OA
ATOM     50  C   UNL     1     -24.837   8.733  11.423  0.00  0.00    +0.000 C 
BRANCH  50  51
ATOM     51  C   UNL     1     -24.494   9.040  12.871  0.00  0.00    +0.000 C 
ATOM     52  C   UNL     1     -24.061   7.759  13.583  0.00  0.00    +0.000 C 
BRANCH  51  53
ATOM     53  C   UNL     1     -23.421  10.136  12.905  0.00  0.00    +0.000 C 
ATOM     54  C   UNL     1     -23.364  10.881  14.230  0.00  0.00    +0.000 C 
ENDBRANCH  51  53
ENDBRANCH  50  51
ENDBRANCH  48  50
ENDBRANCH  10  48
BRANCH   8  55
ATOM     55  O   UNL     1     -26.857  10.928   9.948  0.00  0.00    +0.000 OA
BRANCH  55  57
ATOM     56  O   UNL     1     -27.344  11.656  12.063  0.00  0.00    +0.000 OA
ATOM     57  C   UNL     1     -27.268  11.835  10.859  0.00  0.00    +0.000 C 
BRANCH  57  58
ATOM     58  C   UNL     1     -27.628  13.116  10.193  0.00  0.00    +0.000 A 
ATOM     59  C   UNL     1     -27.307  13.384   8.855  0.00  0.00    +0.000 A 
ATOM     60  C   UNL     1     -28.311  14.083  10.943  0.00  0.00    +0.000 A 
ATOM     61  C   UNL     1     -27.661  14.606   8.279  0.00  0.00    +0.000 A 
ATOM     62  C   UNL     1     -28.665  15.302  10.364  0.00  0.00    +0.000 A 
ATOM     63  C   UNL     1     -28.340  15.563   9.033  0.00  0.00    +0.000 A 
ENDBRANCH  57  58
ENDBRANCH  55  57
ENDBRANCH   8  55
TORSDOF 16
ENDMDL
MODEL 2
REMARK VINA RESULT:    -5.553      5.574      9.970
REMARK INTER + INTRA:         -13.845
REMARK INTER:                 -10.426
REMARK INTRA:                  -3.419
REMARK UNBOUND:                -3.423
REMARK  Name = ./IMPHY000002_3D.pdb
REMARK  25 active torsions:
REMARK  status: ('A' for Active; 'I' for Inactive)
REMARK    1  A    between atoms: O_2  and  C_21
REMARK    2  A    between atoms: O_2  and  C_37
REMARK    3  A    between atoms: O_3  and  C_23
REMARK    4  A    between atoms: O_3  and  C_36
REMARK    5  A    between atoms: O_4  and  C_34
REMARK    6  A    between atoms: O_4  and  C_39
REMARK    7  A    between atoms: O_9  and  C_46
REMARK    8  A    between atoms: O_9  and  C_54
REMARK    9  A    between atoms: O_10  and  C_48
REMARK   10  A    between atoms: O_10  and  C_55
REMARK   11  A    between atoms: O_12  and  C_56
REMARK   12  A    between atoms: O_13  and  C_57
REMARK   13  A    between atoms: O_13  and  C_61
REMARK   14  A    between atoms: O_14  and  C_59
REMARK   15  A    between atoms: C_17  and  C_28
REMARK   16  A    between atoms: C_19  and  C_30
REMARK   17  A    between atoms: C_24  and  C_33
REMARK   18  A    between atoms: C_33  and  C_35
REMARK   19  A    between atoms: C_36  and  C_38
REMARK   20  A    between atoms: C_37  and  C_40
REMARK   21  A    between atoms: C_38  and  C_41
REMARK   22  A    between atoms: C_38  and  C_43
REMARK   23  A    between atoms: C_41  and  C_49
REMARK   24  A    between atoms: C_47  and  C_52
REMARK   25  A    between atoms: C_58  and  C_60
REMARK                            x       y       z     vdW  Elec       q    Type
REMARK                         _______ _______ _______ _____ _____    ______ ____
ROOT
ATOM      1  O   UNL     1     -25.821   8.053  13.087  0.00  0.00    +0.000 OA
ATOM      2  C   UNL     1     -24.810   8.853  13.715  0.00  0.00    +0.000 C 
ATOM      3  C   UNL     1     -25.129   8.968  12.230  0.00  0.00    +0.000 C 
ATOM      4  C   UNL     1     -25.313   9.845  14.742  0.00  0.00    +0.000 C 
ATOM      5  C   UNL     1     -25.944  10.155  11.723  0.00  0.00    +0.000 C 
ATOM      6  C   UNL     1     -26.752   9.751  10.411  0.00  0.00    +0.000 C 
ATOM      7  C   UNL     1     -23.616   8.098  14.239  0.00  0.00    +0.000 C 
ATOM      8  C   UNL     1     -25.882  11.135  14.102  0.00  0.00    +0.000 C 
ATOM      9  C   UNL     1     -24.231   8.299  11.226  0.00  0.00    +0.000 C 
ATOM     10  C   UNL     1     -26.764  10.837  12.855  0.00  0.00    +0.000 C 
ATOM     11  C   UNL     1     -24.026  10.060  15.606  0.00  0.00    +0.000 C 
ATOM     12  C   UNL     1     -25.727   9.140   9.392  0.00  0.00    +0.000 C 
ATOM     13  C   UNL     1     -23.387   8.660  15.649  0.00  0.00    +0.000 C 
ATOM     14  C   UNL     1     -24.988   7.924   9.959  0.00  0.00    +0.000 C 
ATOM     15  C   UNL     1     -26.395   9.165  15.631  0.00  0.00    +0.000 C 
ATOM     16  C   UNL     1     -27.395  10.986   9.716  0.00  0.00    +0.000 C 
ATOM     17  C   UNL     1     -27.887   8.755  10.760  0.00  0.00    +0.000 C 
ATOM     18  C   UNL     1     -26.344   8.810   8.026  0.00  0.00    +0.000 C 
ATOM     19  C   UNL     1     -27.974  10.699   8.330  0.00  0.00    +0.000 C 
ATOM     20  C   UNL     1     -26.966  10.052   7.384  0.00  0.00    +0.000 C 
ENDROOT
BRANCH  11  22
ATOM     21  O   UNL     1     -22.832  11.141  13.794  0.00  0.00    +0.000 OA
ATOM     22  C   UNL     1     -22.982  11.013  15.010  0.00  0.00    +0.000 C 
ATOM     23  C   UNL     1     -22.049  11.693  15.979  0.00  0.00    +0.000 C 
ENDBRANCH  11  22
BRANCH  20  24
ATOM     24  O   UNL     1     -27.675   9.708   6.190  0.00  0.00    +0.000 OA
BRANCH  24  26
ATOM     25  O   UNL     1     -29.292   8.136   6.818  0.00  0.00    +0.000 OA
ATOM     26  C   UNL     1     -29.066   9.471   6.386  0.00  0.00    +0.000 C 
ATOM     27  C   UNL     1     -29.752   9.678   5.046  0.00  0.00    +0.000 C 
ATOM     28  C   UNL     1     -31.254   9.421   5.144  0.00  0.00    +0.000 C 
ATOM     29  C   UNL     1     -30.673   7.888   7.082  0.00  0.00    +0.000 C 
ATOM     30  C   UNL     1     -31.545   8.058   5.819  0.00  0.00    +0.000 C 
ATOM     31  C   UNL     1     -30.779   6.472   7.643  0.00  0.00    +0.000 C 
BRANCH  28  32
ATOM     32  O   UNL     1     -31.807   9.412   3.815  0.00  0.00    +0.000 OA
ATOM     33  C   UNL     1     -31.650  10.648   3.130  0.00  0.00    +0.000 C 
ENDBRANCH  28  32
BRANCH  30  34
ATOM     34  O   UNL     1     -32.909   7.948   6.259  0.00  0.00    +0.000 OA
BRANCH  34  36
ATOM     35  O   UNL     1     -33.704   9.101   8.116  0.00  0.00    +0.000 OA
ATOM     36  C   UNL     1     -33.495   9.174   6.704  0.00  0.00    +0.000 C 
ATOM     37  C   UNL     1     -34.867   9.312   6.001  0.00  0.00    +0.000 C 
ATOM     38  C   UNL     1     -35.897   9.998   6.924  0.00  0.00    +0.000 C 
ATOM     39  C   UNL     1     -34.095  10.375   8.657  0.00  0.00    +0.000 C 
ATOM     40  C   UNL     1     -35.218  11.036   7.829  0.00  0.00    +0.000 C 
ATOM     41  C   UNL     1     -34.550  10.107  10.087  0.00  0.00    +0.000 C 
BRANCH  40  42
ATOM     42  O   UNL     1     -34.656  12.082   7.022  0.00  0.00    +0.000 OA
ATOM     43  H   UNL     1     -35.415  12.583   6.665  0.00  0.00    +0.000 HD
ENDBRANCH  40  42
BRANCH  38  44
ATOM     44  O   UNL     1     -36.913  10.665   6.143  0.00  0.00    +0.000 OA
ATOM     45  C   UNL     1     -38.055   9.842   5.921  0.00  0.00    +0.000 C 
ENDBRANCH  38  44
BRANCH  37  46
ATOM     46  O   UNL     1     -34.720  10.029   4.758  0.00  0.00    +0.000 OA
ATOM     47  H   UNL     1     -34.195   9.450   4.175  0.00  0.00    +0.000 HD
ENDBRANCH  37  46
ENDBRANCH  34  36
ENDBRANCH  30  34
ENDBRANCH  24  26
ENDBRANCH  20  24
BRANCH  10  48
ATOM     48  O   UNL     1     -27.230  12.124  12.370  0.00  0.00    +0.000 OA
BRANCH  48  50
ATOM     49  O   UNL     1     -29.408  11.633  12.924  0.00  0.00    +0.000 OA
ATOM     50  C   UNL     1     -28.574  12.350  12.388  0.00  0.00    +0.000 C 
BRANCH  50  51
ATOM     51  C   UNL     1     -28.882  13.644  11.655  0.00  0.00    +0.000 C 
ATOM     52  C   UNL     1     -29.672  14.582  12.568  0.00  0.00    +0.000 C 
BRANCH  51  53
ATOM     53  C   UNL     1     -27.567  14.259  11.158  0.00  0.00    +0.000 C 
ATOM     54  C   UNL     1     -27.613  14.678   9.697  0.00  0.00    +0.000 C 
ENDBRANCH  51  53
ENDBRANCH  50  51
ENDBRANCH  48  50
ENDBRANCH  10  48
BRANCH   8  55
ATOM     55  O   UNL     1     -26.725  11.828  15.065  0.00  0.00    +0.000 OA
BRANCH  55  57
ATOM     56  O   UNL     1     -25.139  13.402  15.561  0.00  0.00    +0.000 OA
ATOM     57  C   UNL     1     -26.291  13.001  15.571  0.00  0.00    +0.000 C 
BRANCH  57  58
ATOM     58  C   UNL     1     -27.423  13.764  16.162  0.00  0.00    +0.000 A 
ATOM     59  C   UNL     1     -28.762  13.413  15.944  0.00  0.00    +0.000 A 
ATOM     60  C   UNL     1     -27.125  14.876  16.963  0.00  0.00    +0.000 A 
ATOM     61  C   UNL     1     -29.788  14.168  16.516  0.00  0.00    +0.000 A 
ATOM     62  C   UNL     1     -28.153  15.627  17.535  0.00  0.00    +0.000 A 
ATOM     63  C   UNL     1     -29.484  15.273  17.310  0.00  0.00    +0.000 A 
ENDBRANCH  57  58
ENDBRANCH  55  57
ENDBRANCH   8  55
TORSDOF 16
ENDMDL
MODEL 3
REMARK VINA RESULT:    -5.386      8.201     12.500
REMARK INTER + INTRA:         -13.533
REMARK INTER:                  -9.850
REMARK INTRA:                  -3.682
REMARK UNBOUND:                -3.423
REMARK  Name = ./IMPHY000002_3D.pdb
REMARK  25 active torsions:
REMARK  status: ('A' for Active; 'I' for Inactive)
REMARK    1  A    between atoms: O_2  and  C_21
REMARK    2  A    between atoms: O_2  and  C_37
REMARK    3  A    between atoms: O_3  and  C_23
REMARK    4  A    between atoms: O_3  and  C_36
REMARK    5  A    between atoms: O_4  and  C_34
REMARK    6  A    between atoms: O_4  and  C_39
REMARK    7  A    between atoms: O_9  and  C_46
REMARK    8  A    between atoms: O_9  and  C_54
REMARK    9  A    between atoms: O_10  and  C_48
REMARK   10  A    between atoms: O_10  and  C_55
REMARK   11  A    between atoms: O_12  and  C_56
REMARK   12  A    between atoms: O_13  and  C_57
REMARK   13  A    between atoms: O_13  and  C_61
REMARK   14  A    between atoms: O_14  and  C_59
REMARK   15  A    between atoms: C_17  and  C_28
REMARK   16  A    between atoms: C_19  and  C_30
REMARK   17  A    between atoms: C_24  and  C_33
REMARK   18  A    between atoms: C_33  and  C_35
REMARK   19  A    between atoms: C_36  and  C_38
REMARK   20  A    between atoms: C_37  and  C_40
REMARK   21  A    between atoms: C_38  and  C_41
REMARK   22  A    between atoms: C_38  and  C_43
REMARK   23  A    between atoms: C_41  and  C_49
REMARK   24  A    between atoms: C_47  and  C_52
REMARK   25  A    between atoms: C_58  and  C_60
REMARK                            x       y       z     vdW  Elec       q    Type
REMARK                         _______ _______ _______ _____ _____    ______ ____
ROOT
ATOM      1  O   UNL     1     -16.767   6.240   9.465  0.00  0.00    +0.000 OA
ATOM      2  C   UNL     1     -16.203   6.218  10.784  0.00  0.00    +0.000 C 
ATOM      3  C   UNL     1     -17.153   5.135  10.290  0.00  0.00    +0.000 C 
ATOM      4  C   UNL     1     -14.703   6.030  10.845  0.00  0.00    +0.000 C 
ATOM      5  C   UNL     1     -16.597   3.772   9.885  0.00  0.00    +0.000 C 
ATOM      6  C   UNL     1     -17.530   3.099   8.783  0.00  0.00    +0.000 C 
ATOM      7  C   UNL     1     -16.641   7.335  11.695  0.00  0.00    +0.000 C 
ATOM      8  C   UNL     1     -14.276   4.550  10.682  0.00  0.00    +0.000 C 
ATOM      9  C   UNL     1     -18.596   5.167  10.711  0.00  0.00    +0.000 C 
ATOM     10  C   UNL     1     -15.077   3.826   9.561  0.00  0.00    +0.000 C 
ATOM     11  C   UNL     1     -14.381   6.649  12.246  0.00  0.00    +0.000 C 
ATOM     12  C   UNL     1     -18.998   3.101   9.339  0.00  0.00    +0.000 C 
ATOM     13  C   UNL     1     -15.344   7.846  12.338  0.00  0.00    +0.000 C 
ATOM     14  C   UNL     1     -19.497   4.510   9.674  0.00  0.00    +0.000 C 
ATOM     15  C   UNL     1     -14.026   6.906   9.752  0.00  0.00    +0.000 C 
ATOM     16  C   UNL     1     -17.150   1.613   8.522  0.00  0.00    +0.000 C 
ATOM     17  C   UNL     1     -17.418   3.863   7.439  0.00  0.00    +0.000 C 
ATOM     18  C   UNL     1     -19.998   2.373   8.431  0.00  0.00    +0.000 C 
ATOM     19  C   UNL     1     -18.155   0.847   7.661  0.00  0.00    +0.000 C 
ATOM     20  C   UNL     1     -19.581   0.918   8.201  0.00  0.00    +0.000 C 
ENDROOT
BRANCH  11  22
ATOM     21  O   UNL     1     -15.804   5.327  13.697  0.00  0.00    +0.000 OA
ATOM     22  C   UNL     1     -14.672   5.744  13.451  0.00  0.00    +0.000 C 
ATOM     23  C   UNL     1     -13.531   5.492  14.404  0.00  0.00    +0.000 C 
ENDBRANCH  11  22
BRANCH  20  24
ATOM     24  O   UNL     1     -20.427   0.293   7.232  0.00  0.00    +0.000 OA
BRANCH  24  26
ATOM     25  O   UNL     1     -21.516   1.474   5.529  0.00  0.00    +0.000 OA
ATOM     26  C   UNL     1     -20.308   0.835   5.919  0.00  0.00    +0.000 C 
ATOM     27  C   UNL     1     -20.037  -0.325   4.976  0.00  0.00    +0.000 C 
ATOM     28  C   UNL     1     -19.918   0.150   3.529  0.00  0.00    +0.000 C 
ATOM     29  C   UNL     1     -21.405   2.080   4.241  0.00  0.00    +0.000 C 
ATOM     30  C   UNL     1     -21.119   1.042   3.133  0.00  0.00    +0.000 C 
ATOM     31  C   UNL     1     -22.711   2.827   3.978  0.00  0.00    +0.000 C 
BRANCH  28  32
ATOM     32  O   UNL     1     -19.887  -1.002   2.667  0.00  0.00    +0.000 OA
ATOM     33  C   UNL     1     -21.116  -1.716   2.635  0.00  0.00    +0.000 C 
ENDBRANCH  28  32
BRANCH  30  34
ATOM     34  O   UNL     1     -20.867   1.797   1.936  0.00  0.00    +0.000 OA
BRANCH  34  36
ATOM     35  O   UNL     1     -19.959   3.930   1.739  0.00  0.00    +0.000 OA
ATOM     36  C   UNL     1     -19.651   2.550   1.948  0.00  0.00    +0.000 C 
ATOM     37  C   UNL     1     -18.783   2.045   0.770  0.00  0.00    +0.000 C 
ATOM     38  C   UNL     1     -17.965   3.198   0.151  0.00  0.00    +0.000 C 
ATOM     39  C   UNL     1     -18.807   4.765   1.948  0.00  0.00    +0.000 C 
ATOM     40  C   UNL     1     -17.558   4.221   1.222  0.00  0.00    +0.000 C 
ATOM     41  C   UNL     1     -19.186   6.148   1.431  0.00  0.00    +0.000 C 
BRANCH  40  42
ATOM     42  O   UNL     1     -16.691   3.593   2.178  0.00  0.00    +0.000 OA
ATOM     43  H   UNL     1     -17.144   3.668   3.041  0.00  0.00    +0.000 HD
ENDBRANCH  40  42
BRANCH  38  44
ATOM     44  O   UNL     1     -16.767   2.689  -0.476  0.00  0.00    +0.000 OA
ATOM     45  C   UNL     1     -16.862   2.676  -1.898  0.00  0.00    +0.000 C 
ENDBRANCH  38  44
BRANCH  37  46
ATOM     46  O   UNL     1     -17.926   0.971   1.208  0.00  0.00    +0.000 OA
ATOM     47  H   UNL     1     -17.018   1.241   0.976  0.00  0.00    +0.000 HD
ENDBRANCH  37  46
ENDBRANCH  34  36
ENDBRANCH  30  34
ENDBRANCH  24  26
ENDBRANCH  20  24
BRANCH  10  48
ATOM     48  O   UNL     1     -14.571   2.465   9.516  0.00  0.00    +0.000 OA
BRANCH  48  50
ATOM     49  O   UNL     1     -13.558   0.927   8.137  0.00  0.00    +0.000 OA
ATOM     50  C   UNL     1     -13.987   2.052   8.355  0.00  0.00    +0.000 C 
BRANCH  50  51
ATOM     51  C   UNL     1     -13.964   3.200   7.361  0.00  0.00    +0.000 C 
ATOM     52  C   UNL     1     -12.553   3.780   7.272  0.00  0.00    +0.000 C 
BRANCH  51  53
ATOM     53  C   UNL     1     -14.491   2.698   6.010  0.00  0.00    +0.000 C 
ATOM     54  C   UNL     1     -14.185   3.641   4.857  0.00  0.00    +0.000 C 
ENDBRANCH  51  53
ENDBRANCH  50  51
ENDBRANCH  48  50
ENDBRANCH  10  48
BRANCH   8  55
ATOM     55  O   UNL     1     -12.871   4.484  10.313  0.00  0.00    +0.000 OA
BRANCH  55  57
ATOM     56  O   UNL     1     -11.276   5.017  11.866  0.00  0.00    +0.000 OA
ATOM     57  C   UNL     1     -11.967   4.204  11.275  0.00  0.00    +0.000 C 
BRANCH  57  58
ATOM     58  C   UNL     1     -11.915   2.739  11.531  0.00  0.00    +0.000 A 
ATOM     59  C   UNL     1     -11.327   1.839  10.631  0.00  0.00    +0.000 A 
ATOM     60  C   UNL     1     -12.481   2.254  12.718  0.00  0.00    +0.000 A 
ATOM     61  C   UNL     1     -11.311   0.472  10.915  0.00  0.00    +0.000 A 
ATOM     62  C   UNL     1     -12.462   0.887  12.999  0.00  0.00    +0.000 A 
ATOM     63  C   UNL     1     -11.879  -0.003  12.098  0.00  0.00    +0.000 A 
ENDBRANCH  57  58
ENDBRANCH  55  57
ENDBRANCH   8  55
TORSDOF 16
ENDMDL
MODEL 4
REMARK VINA RESULT:    -5.288      5.600     12.091
REMARK INTER + INTRA:         -13.348
REMARK INTER:                 -10.095
REMARK INTRA:                  -3.253
REMARK UNBOUND:                -3.423
REMARK  Name = ./IMPHY000002_3D.pdb
REMARK  25 active torsions:
REMARK  status: ('A' for Active; 'I' for Inactive)
REMARK    1  A    between atoms: O_2  and  C_21
REMARK    2  A    between atoms: O_2  and  C_37
REMARK    3  A    between atoms: O_3  and  C_23
REMARK    4  A    between atoms: O_3  and  C_36
REMARK    5  A    between atoms: O_4  and  C_34
REMARK    6  A    between atoms: O_4  and  C_39
REMARK    7  A    between atoms: O_9  and  C_46
REMARK    8  A    between atoms: O_9  and  C_54
REMARK    9  A    between atoms: O_10  and  C_48
REMARK   10  A    between atoms: O_10  and  C_55
REMARK   11  A    between atoms: O_12  and  C_56
REMARK   12  A    between atoms: O_13  and  C_57
REMARK   13  A    between atoms: O_13  and  C_61
REMARK   14  A    between atoms: O_14  and  C_59
REMARK   15  A    between atoms: C_17  and  C_28
REMARK   16  A    between atoms: C_19  and  C_30
REMARK   17  A    between atoms: C_24  and  C_33
REMARK   18  A    between atoms: C_33  and  C_35
REMARK   19  A    between atoms: C_36  and  C_38
REMARK   20  A    between atoms: C_37  and  C_40
REMARK   21  A    between atoms: C_38  and  C_41
REMARK   22  A    between atoms: C_38  and  C_43
REMARK   23  A    between atoms: C_41  and  C_49
REMARK   24  A    between atoms: C_47  and  C_52
REMARK   25  A    between atoms: C_58  and  C_60
REMARK                            x       y       z     vdW  Elec       q    Type
REMARK                         _______ _______ _______ _____ _____    ______ ____
ROOT
ATOM      1  O   UNL     1     -29.111  12.850  13.030  0.00  0.00    +0.000 OA
ATOM      2  C   UNL     1     -28.887  13.538  11.791  0.00  0.00    +0.000 C 
ATOM      3  C   UNL     1     -27.740  13.048  12.666  0.00  0.00    +0.000 C 
ATOM      4  C   UNL     1     -29.346  12.804  10.550  0.00  0.00    +0.000 C 
ATOM      5  C   UNL     1     -26.967  11.795  12.263  0.00  0.00    +0.000 C 
ATOM      6  C   UNL     1     -26.376  11.071  13.553  0.00  0.00    +0.000 C 
ATOM      7  C   UNL     1     -29.333  14.976  11.759  0.00  0.00    +0.000 C 
ATOM      8  C   UNL     1     -28.338  11.723  10.085  0.00  0.00    +0.000 C 
ATOM      9  C   UNL     1     -27.012  14.025  13.547  0.00  0.00    +0.000 C 
ATOM     10  C   UNL     1     -27.767  10.898  11.275  0.00  0.00    +0.000 C 
ATOM     11  C   UNL     1     -29.531  13.993   9.550  0.00  0.00    +0.000 C 
ATOM     12  C   UNL     1     -25.567  12.140  14.368  0.00  0.00    +0.000 C 
ATOM     13  C   UNL     1     -30.097  15.118  10.434  0.00  0.00    +0.000 C 
ATOM     14  C   UNL     1     -26.427  13.341  14.776  0.00  0.00    +0.000 C 
ATOM     15  C   UNL     1     -30.738  12.160  10.813  0.00  0.00    +0.000 C 
ATOM     16  C   UNL     1     -25.377   9.938  13.182  0.00  0.00    +0.000 C 
ATOM     17  C   UNL     1     -27.519  10.444  14.393  0.00  0.00    +0.000 C 
ATOM     18  C   UNL     1     -24.837  11.559  15.586  0.00  0.00    +0.000 C 
ATOM     19  C   UNL     1     -24.596   9.372  14.370  0.00  0.00    +0.000 C 
ATOM     20  C   UNL     1     -23.869  10.448  15.173  0.00  0.00    +0.000 C 
ENDROOT
BRANCH  11  22
ATOM     21  O   UNL     1     -27.222  13.841   8.825  0.00  0.00    +0.000 OA
ATOM     22  C   UNL     1     -28.241  14.528   8.913  0.00  0.00    +0.000 C 
ATOM     23  C   UNL     1     -28.230  15.982   8.516  0.00  0.00    +0.000 C 
ENDBRANCH  11  22
BRANCH  20  24
ATOM     24  O   UNL     1     -23.311   9.805  16.323  0.00  0.00    +0.000 OA
BRANCH  24  26
ATOM     25  O   UNL     1     -21.426  11.194  16.325  0.00  0.00    +0.000 OA
ATOM     26  C   UNL     1     -22.475  10.647  17.113  0.00  0.00    +0.000 C 
ATOM     27  C   UNL     1     -21.870   9.782  18.207  0.00  0.00    +0.000 C 
ATOM     28  C   UNL     1     -20.932  10.591  19.100  0.00  0.00    +0.000 C 
ATOM     29  C   UNL     1     -20.609  12.090  17.078  0.00  0.00    +0.000 C 
ATOM     30  C   UNL     1     -19.904  11.384  18.256  0.00  0.00    +0.000 C 
ATOM     31  C   UNL     1     -19.596  12.699  16.110  0.00  0.00    +0.000 C 
BRANCH  28  32
ATOM     32  O   UNL     1     -20.225   9.683  19.966  0.00  0.00    +0.000 OA
ATOM     33  C   UNL     1     -19.293   8.858  19.278  0.00  0.00    +0.000 C 
ENDBRANCH  28  32
BRANCH  30  34
ATOM     34  O   UNL     1     -19.261  12.422  19.015  0.00  0.00    +0.000 OA
BRANCH  34  36
ATOM     35  O   UNL     1     -20.353  14.420  19.491  0.00  0.00    +0.000 OA
ATOM     36  C   UNL     1     -20.108  13.090  19.954  0.00  0.00    +0.000 C 
ATOM     37  C   UNL     1     -19.345  13.160  21.299  0.00  0.00    +0.000 C 
ATOM     38  C   UNL     1     -19.668  14.467  22.053  0.00  0.00    +0.000 C 
ATOM     39  C   UNL     1     -21.364  15.074  20.277  0.00  0.00    +0.000 C 
ATOM     40  C   UNL     1     -21.116  14.908  21.792  0.00  0.00    +0.000 C 
ATOM     41  C   UNL     1     -21.332  16.543  19.872  0.00  0.00    +0.000 C 
BRANCH  40  42
ATOM     42  O   UNL     1     -22.018  13.920  22.313  0.00  0.00    +0.000 OA
ATOM     43  H   UNL     1     -22.911  14.311  22.249  0.00  0.00    +0.000 HD
ENDBRANCH  40  42
BRANCH  38  44
ATOM     44  O   UNL     1     -19.492  14.288  23.475  0.00  0.00    +0.000 OA
ATOM     45  C   UNL     1     -18.682  15.309  24.054  0.00  0.00    +0.000 C 
ENDBRANCH  38  44
BRANCH  37  46
ATOM     46  O   UNL     1     -19.648  12.003  22.104  0.00  0.00    +0.000 OA
ATOM     47  H   UNL     1     -19.052  11.295  21.793  0.00  0.00    +0.000 HD
ENDBRANCH  37  46
ENDBRANCH  34  36
ENDBRANCH  30  34
ENDBRANCH  24  26
ENDBRANCH  20  24
BRANCH  10  48
ATOM     48  O   UNL     1     -26.853   9.929  10.696  0.00  0.00    +0.000 OA
BRANCH  48  50
ATOM     49  O   UNL     1     -28.284   8.192  11.171  0.00  0.00    +0.000 OA
ATOM     50  C   UNL     1     -27.251   8.626  10.678  0.00  0.00    +0.000 C 
BRANCH  50  51
ATOM     51  C   UNL     1     -26.224   7.789   9.934  0.00  0.00    +0.000 C 
ATOM     52  C   UNL     1     -26.640   7.639   8.472  0.00  0.00    +0.000 C 
BRANCH  51  53
ATOM     53  C   UNL     1     -24.843   8.436  10.101  0.00  0.00    +0.000 C 
ATOM     54  C   UNL     1     -23.847   7.548  10.831  0.00  0.00    +0.000 C 
ENDBRANCH  51  53
ENDBRANCH  50  51
ENDBRANCH  48  50
ENDBRANCH  10  48
BRANCH   8  55
ATOM     55  O   UNL     1     -29.003  10.784   9.196  0.00  0.00    +0.000 OA
BRANCH  55  57
ATOM     56  O   UNL     1     -27.447  10.868   7.520  0.00  0.00    +0.000 OA
ATOM     57  C   UNL     1     -28.591  10.712   7.913  0.00  0.00    +0.000 C 
BRANCH  57  58
ATOM     58  C   UNL     1     -29.737  10.411   7.013  0.00  0.00    +0.000 A 
ATOM     59  C   UNL     1     -31.033  10.882   7.263  0.00  0.00    +0.000 A 
ATOM     60  C   UNL     1     -29.498   9.625   5.877  0.00  0.00    +0.000 A 
ATOM     61  C   UNL     1     -32.076  10.565   6.391  0.00  0.00    +0.000 A 
ATOM     62  C   UNL     1     -30.543   9.311   5.006  0.00  0.00    +0.000 A 
ATOM     63  C   UNL     1     -31.831   9.781   5.264  0.00  0.00    +0.000 A 
ENDBRANCH  57  58
ENDBRANCH  55  57
ENDBRANCH   8  55
TORSDOF 16
ENDMDL
MODEL 5
REMARK VINA RESULT:    -5.280      6.044     14.298
REMARK INTER + INTRA:         -13.333
REMARK INTER:                  -9.916
REMARK INTRA:                  -3.417
REMARK UNBOUND:                -3.423
REMARK  Name = ./IMPHY000002_3D.pdb
REMARK  25 active torsions:
REMARK  status: ('A' for Active; 'I' for Inactive)
REMARK    1  A    between atoms: O_2  and  C_21
REMARK    2  A    between atoms: O_2  and  C_37
REMARK    3  A    between atoms: O_3  and  C_23
REMARK    4  A    between atoms: O_3  and  C_36
REMARK    5  A    between atoms: O_4  and  C_34
REMARK    6  A    between atoms: O_4  and  C_39
REMARK    7  A    between atoms: O_9  and  C_46
REMARK    8  A    between atoms: O_9  and  C_54
REMARK    9  A    between atoms: O_10  and  C_48
REMARK   10  A    between atoms: O_10  and  C_55
REMARK   11  A    between atoms: O_12  and  C_56
REMARK   12  A    between atoms: O_13  and  C_57
REMARK   13  A    between atoms: O_13  and  C_61
REMARK   14  A    between atoms: O_14  and  C_59
REMARK   15  A    between atoms: C_17  and  C_28
REMARK   16  A    between atoms: C_19  and  C_30
REMARK   17  A    between atoms: C_24  and  C_33
REMARK   18  A    between atoms: C_33  and  C_35
REMARK   19  A    between atoms: C_36  and  C_38
REMARK   20  A    between atoms: C_37  and  C_40
REMARK   21  A    between atoms: C_38  and  C_41
REMARK   22  A    between atoms: C_38  and  C_43
REMARK   23  A    between atoms: C_41  and  C_49
REMARK   24  A    between atoms: C_47  and  C_52
REMARK   25  A    between atoms: C_58  and  C_60
REMARK                            x       y       z     vdW  Elec       q    Type
REMARK                         _______ _______ _______ _____ _____    ______ ____
ROOT
ATOM      1  O   UNL     1     -14.997   6.439  11.823  0.00  0.00    +0.000 OA
ATOM      2  C   UNL     1     -14.329   5.171  11.861  0.00  0.00    +0.000 C 
ATOM      3  C   UNL     1     -15.829   5.304  12.092  0.00  0.00    +0.000 C 
ATOM      4  C   UNL     1     -13.738   4.709  10.546  0.00  0.00    +0.000 C 
ATOM      5  C   UNL     1     -16.801   4.910  10.983  0.00  0.00    +0.000 C 
ATOM      6  C   UNL     1     -18.147   5.753  11.103  0.00  0.00    +0.000 C 
ATOM      7  C   UNL     1     -13.342   4.991  12.985  0.00  0.00    +0.000 C 
ATOM      8  C   UNL     1     -14.793   4.081   9.602  0.00  0.00    +0.000 C 
ATOM      9  C   UNL     1     -16.367   5.266  13.496  0.00  0.00    +0.000 C 
ATOM     10  C   UNL     1     -16.124   4.888   9.583  0.00  0.00    +0.000 C 
ATOM     11  C   UNL     1     -12.637   3.715  11.045  0.00  0.00    +0.000 C 
ATOM     12  C   UNL     1     -18.681   5.589  12.569  0.00  0.00    +0.000 C 
ATOM     13  C   UNL     1     -12.095   4.391  12.317  0.00  0.00    +0.000 C 
ATOM     14  C   UNL     1     -17.666   6.053  13.619  0.00  0.00    +0.000 C 
ATOM     15  C   UNL     1     -13.038   5.909   9.844  0.00  0.00    +0.000 C 
ATOM     16  C   UNL     1     -19.260   5.215  10.157  0.00  0.00    +0.000 C 
ATOM     17  C   UNL     1     -17.891   7.238  10.741  0.00  0.00    +0.000 C 
ATOM     18  C   UNL     1     -20.044   6.253  12.804  0.00  0.00    +0.000 C 
ATOM     19  C   UNL     1     -20.642   5.823  10.401  0.00  0.00    +0.000 C 
ATOM     20  C   UNL     1     -21.104   5.696  11.850  0.00  0.00    +0.000 C 
ENDROOT
BRANCH  11  22
ATOM     21  O   UNL     1     -14.316   2.116  11.753  0.00  0.00    +0.000 OA
ATOM     22  C   UNL     1     -13.139   2.324  11.454  0.00  0.00    +0.000 C 
ATOM     23  C   UNL     1     -12.100   1.242  11.604  0.00  0.00    +0.000 C 
ENDBRANCH  11  22
BRANCH  20  24
ATOM     24  O   UNL     1     -22.327   6.427  11.965  0.00  0.00    +0.000 OA
BRANCH  24  26
ATOM     25  O   UNL     1     -23.125   6.789  14.137  0.00  0.00    +0.000 OA
ATOM     26  C   UNL     1     -22.365   7.332  13.066  0.00  0.00    +0.000 C 
ATOM     27  C   UNL     1     -23.037   8.605  12.579  0.00  0.00    +0.000 C 
ATOM     28  C   UNL     1     -23.149   9.638  13.699  0.00  0.00    +0.000 C 
ATOM     29  C   UNL     1     -23.128   7.649  15.276  0.00  0.00    +0.000 C 
ATOM     30  C   UNL     1     -23.777   9.016  14.970  0.00  0.00    +0.000 C 
ATOM     31  C   UNL     1     -23.872   6.918  16.391  0.00  0.00    +0.000 C 
BRANCH  28  32
ATOM     32  O   UNL     1     -23.984  10.719  13.246  0.00  0.00    +0.000 OA
ATOM     33  C   UNL     1     -25.349  10.351  13.089  0.00  0.00    +0.000 C 
ENDBRANCH  28  32
BRANCH  30  34
ATOM     34  O   UNL     1     -23.562   9.828  16.137  0.00  0.00    +0.000 OA
BRANCH  34  36
ATOM     35  O   UNL     1     -21.488  10.169  17.132  0.00  0.00    +0.000 OA
ATOM     36  C   UNL     1     -22.372  10.620  16.105  0.00  0.00    +0.000 C 
ATOM     37  C   UNL     1     -22.782  12.084  16.402  0.00  0.00    +0.000 C 
ATOM     38  C   UNL     1     -21.686  12.813  17.208  0.00  0.00    +0.000 C 
ATOM     39  C   UNL     1     -20.192  10.782  17.019  0.00  0.00    +0.000 C 
ATOM     40  C   UNL     1     -20.289  12.310  16.817  0.00  0.00    +0.000 C 
ATOM     41  C   UNL     1     -19.448  10.443  18.306  0.00  0.00    +0.000 C 
BRANCH  40  42
ATOM     42  O   UNL     1     -20.036  12.621  15.439  0.00  0.00    +0.000 OA
ATOM     43  H   UNL     1     -20.855  12.396  14.958  0.00  0.00    +0.000 HD
ENDBRANCH  40  42
BRANCH  38  44
ATOM     44  O   UNL     1     -21.744  14.236  16.969  0.00  0.00    +0.000 OA
ATOM     45  C   UNL     1     -21.720  14.991  18.178  0.00  0.00    +0.000 C 
ENDBRANCH  38  44
BRANCH  37  46
ATOM     46  O   UNL     1     -23.076  12.778  15.172  0.00  0.00    +0.000 OA
ATOM     47  H   UNL     1     -22.277  13.293  14.957  0.00  0.00    +0.000 HD
ENDBRANCH  37  46
ENDBRANCH  34  36
ENDBRANCH  30  34
ENDBRANCH  24  26
ENDBRANCH  20  24
BRANCH  10  48
ATOM     48  O   UNL     1     -17.006   4.194   8.661  0.00  0.00    +0.000 OA
BRANCH  48  50
ATOM     49  O   UNL     1     -16.947   5.814   7.028  0.00  0.00    +0.000 OA
ATOM     50  C   UNL     1     -17.045   4.644   7.374  0.00  0.00    +0.000 C 
BRANCH  50  51
ATOM     51  C   UNL     1     -17.209   3.467   6.428  0.00  0.00    +0.000 C 
ATOM     52  C   UNL     1     -18.014   2.363   7.111  0.00  0.00    +0.000 C 
BRANCH  51  53
ATOM     53  C   UNL     1     -17.855   3.962   5.127  0.00  0.00    +0.000 C 
ATOM     54  C   UNL     1     -16.980   3.750   3.902  0.00  0.00    +0.000 C 
ENDBRANCH  51  53
ENDBRANCH  50  51
ENDBRANCH  48  50
ENDBRANCH  10  48
BRANCH   8  55
ATOM     55  O   UNL     1     -14.283   4.067   8.239  0.00  0.00    +0.000 OA
BRANCH  55  57
ATOM     56  O   UNL     1     -13.865   1.817   8.276  0.00  0.00    +0.000 OA
ATOM     57  C   UNL     1     -13.968   2.878   7.684  0.00  0.00    +0.000 C 
BRANCH  57  58
ATOM     58  C   UNL     1     -13.756   3.028   6.219  0.00  0.00    +0.000 A 
ATOM     59  C   UNL     1     -13.719   4.279   5.588  0.00  0.00    +0.000 A 
ATOM     60  C   UNL     1     -13.589   1.866   5.452  0.00  0.00    +0.000 A 
ATOM     61  C   UNL     1     -13.524   4.363   4.208  0.00  0.00    +0.000 A 
ATOM     62  C   UNL     1     -13.393   1.954   4.073  0.00  0.00    +0.000 A 
ATOM     63  C   UNL     1     -13.361   3.203   3.452  0.00  0.00    +0.000 A 
ENDBRANCH  57  58
ENDBRANCH  55  57
ENDBRANCH   8  55
TORSDOF 16
ENDMDL
MODEL 6
REMARK VINA RESULT:    -5.231      5.158     11.067
REMARK INTER + INTRA:         -13.241
REMARK INTER:                 -10.355
REMARK INTRA:                  -2.886
REMARK UNBOUND:                -3.423
REMARK  Name = ./IMPHY000002_3D.pdb
REMARK  25 active torsions:
REMARK  status: ('A' for Active; 'I' for Inactive)
REMARK    1  A    between atoms: O_2  and  C_21
REMARK    2  A    between atoms: O_2  and  C_37
REMARK    3  A    between atoms: O_3  and  C_23
REMARK    4  A    between atoms: O_3  and  C_36
REMARK    5  A    between atoms: O_4  and  C_34
REMARK    6  A    between atoms: O_4  and  C_39
REMARK    7  A    between atoms: O_9  and  C_46
REMARK    8  A    between atoms: O_9  and  C_54
REMARK    9  A    between atoms: O_10  and  C_48
REMARK   10  A    between atoms: O_10  and  C_55
REMARK   11  A    between atoms: O_12  and  C_56
REMARK   12  A    between atoms: O_13  and  C_57
REMARK   13  A    between atoms: O_13  and  C_61
REMARK   14  A    between atoms: O_14  and  C_59
REMARK   15  A    between atoms: C_17  and  C_28
REMARK   16  A    between atoms: C_19  and  C_30
REMARK   17  A    between atoms: C_24  and  C_33
REMARK   18  A    between atoms: C_33  and  C_35
REMARK   19  A    between atoms: C_36  and  C_38
REMARK   20  A    between atoms: C_37  and  C_40
REMARK   21  A    between atoms: C_38  and  C_41
REMARK   22  A    between atoms: C_38  and  C_43
REMARK   23  A    between atoms: C_41  and  C_49
REMARK   24  A    between atoms: C_47  and  C_52
REMARK   25  A    between atoms: C_58  and  C_60
REMARK                            x       y       z     vdW  Elec       q    Type
REMARK                         _______ _______ _______ _____ _____    ______ ____
ROOT
ATOM      1  O   UNL     1     -29.713  12.579  12.654  0.00  0.00    +0.000 OA
ATOM      2  C   UNL     1     -29.300  13.125  11.393  0.00  0.00    +0.000 C 
ATOM      3  C   UNL     1     -28.370  13.073  12.599  0.00  0.00    +0.000 C 
ATOM      4  C   UNL     1     -29.222  12.134  10.252  0.00  0.00    +0.000 C 
ATOM      5  C   UNL     1     -27.267  12.020  12.656  0.00  0.00    +0.000 C 
ATOM      6  C   UNL     1     -26.926  11.657  14.169  0.00  0.00    +0.000 C 
ATOM      7  C   UNL     1     -30.014  14.380  10.965  0.00  0.00    +0.000 C 
ATOM      8  C   UNL     1     -27.918  11.298  10.272  0.00  0.00    +0.000 C 
ATOM      9  C   UNL     1     -28.147  14.316  13.415  0.00  0.00    +0.000 C 
ATOM     10  C   UNL     1     -27.545  10.820  11.705  0.00  0.00    +0.000 C 
ATOM     11  C   UNL     1     -29.365  13.087   9.018  0.00  0.00    +0.000 C 
ATOM     12  C   UNL     1     -26.628  13.001  14.923  0.00  0.00    +0.000 C 
ATOM     13  C   UNL     1     -30.384  14.137   9.495  0.00  0.00    +0.000 C 
ATOM     14  C   UNL     1     -27.802  13.983  14.860  0.00  0.00    +0.000 C 
ATOM     15  C   UNL     1     -30.461  11.194  10.296  0.00  0.00    +0.000 C 
ATOM     16  C   UNL     1     -25.645  10.782  14.287  0.00  0.00    +0.000 C 
ATOM     17  C   UNL     1     -28.099  10.877  14.816  0.00  0.00    +0.000 C 
ATOM     18  C   UNL     1     -26.166  12.801  16.372  0.00  0.00    +0.000 C 
ATOM     19  C   UNL     1     -25.131  10.606  15.716  0.00  0.00    +0.000 C 
ATOM     20  C   UNL     1     -24.907  11.932  16.438  0.00  0.00    +0.000 C 
ENDROOT
BRANCH  11  22
ATOM     21  O   UNL     1     -26.987  13.559   9.083  0.00  0.00    +0.000 OA
ATOM     22  C   UNL     1     -28.092  13.844   8.617  0.00  0.00    +0.000 C 
ATOM     23  C   UNL     1     -28.267  15.047   7.725  0.00  0.00    +0.000 C 
ENDBRANCH  11  22
BRANCH  20  24
ATOM     24  O   UNL     1     -24.574  11.620  17.793  0.00  0.00    +0.000 OA
BRANCH  24  26
ATOM     25  O   UNL     1     -22.935  10.976  19.337  0.00  0.00    +0.000 OA
ATOM     26  C   UNL     1     -23.175  11.489  18.034  0.00  0.00    +0.000 C 
ATOM     27  C   UNL     1     -22.568  12.879  17.931  0.00  0.00    +0.000 C 
ATOM     28  C   UNL     1     -21.065  12.851  18.199  0.00  0.00    +0.000 C 
ATOM     29  C   UNL     1     -21.543  10.777  19.582  0.00  0.00    +0.000 C 
ATOM     30  C   UNL     1     -20.746  12.098  19.513  0.00  0.00    +0.000 C 
ATOM     31  C   UNL     1     -21.415  10.123  20.956  0.00  0.00    +0.000 C 
BRANCH  28  32
ATOM     32  O   UNL     1     -20.592  14.206  18.309  0.00  0.00    +0.000 OA
ATOM     33  C   UNL     1     -21.637  15.170  18.311  0.00  0.00    +0.000 C 
ENDBRANCH  28  32
BRANCH  30  34
ATOM     34  O   UNL     1     -19.359  11.731  19.610  0.00  0.00    +0.000 OA
BRANCH  34  36
ATOM     35  O   UNL     1     -18.458  10.017  18.321  0.00  0.00    +0.000 OA
ATOM     36  C   UNL     1     -18.735  11.418  18.361  0.00  0.00    +0.000 C 
ATOM     37  C   UNL     1     -17.397  12.196  18.305  0.00  0.00    +0.000 C 
ATOM     38  C   UNL     1     -16.315  11.383  17.564  0.00  0.00    +0.000 C 
ATOM     39  C   UNL     1     -18.024   9.603  17.014  0.00  0.00    +0.000 C 
ATOM     40  C   UNL     1     -16.934  10.536  16.443  0.00  0.00    +0.000 C 
ATOM     41  C   UNL     1     -17.503   8.179  17.172  0.00  0.00    +0.000 C 
BRANCH  40  42
ATOM     42  O   UNL     1     -17.521  11.399  15.458  0.00  0.00    +0.000 OA
ATOM     43  H   UNL     1     -16.871  11.459  14.732  0.00  0.00    +0.000 HD
ENDBRANCH  40  42
BRANCH  38  44
ATOM     44  O   UNL     1     -15.330  12.265  16.981  0.00  0.00    +0.000 OA
ATOM     45  C   UNL     1     -14.113  12.287  17.724  0.00  0.00    +0.000 C 
ENDBRANCH  38  44
BRANCH  37  46
ATOM     46  O   UNL     1     -17.596  13.485  17.691  0.00  0.00    +0.000 OA
ATOM     47  H   UNL     1     -18.533  13.713  17.842  0.00  0.00    +0.000 HD
ENDBRANCH  37  46
ENDBRANCH  34  36
ENDBRANCH  30  34
ENDBRANCH  24  26
ENDBRANCH  20  24
BRANCH  10  48
ATOM     48  O   UNL     1     -26.320  10.051  11.571  0.00  0.00    +0.000 OA
BRANCH  48  50
ATOM     49  O   UNL     1     -27.390   8.067  12.033  0.00  0.00    +0.000 OA
ATOM     50  C   UNL     1     -26.427   8.692  11.608  0.00  0.00    +0.000 C 
BRANCH  50  51
ATOM     51  C   UNL     1     -25.172   8.067  11.024  0.00  0.00    +0.000 C 
ATOM     52  C   UNL     1     -24.795   6.820  11.824  0.00  0.00    +0.000 C 
BRANCH  51  53
ATOM     53  C   UNL     1     -25.409   7.775   9.536  0.00  0.00    +0.000 C 
ATOM     54  C   UNL     1     -25.134   6.328   9.156  0.00  0.00    +0.000 C 
ENDBRANCH  51  53
ENDBRANCH  50  51
ENDBRANCH  48  50
ENDBRANCH  10  48
BRANCH   8  55
ATOM     55  O   UNL     1     -28.089  10.106   9.456  0.00  0.00    +0.000 OA
BRANCH  55  57
ATOM     56  O   UNL     1     -26.835  10.739   7.649  0.00  0.00    +0.000 OA
ATOM     57  C   UNL     1     -27.803  10.182   8.139  0.00  0.00    +0.000 C 
BRANCH  57  58
ATOM     58  C   UNL     1     -28.845   9.484   7.339  0.00  0.00    +0.000 A 
ATOM     59  C   UNL     1     -29.256   9.941   6.079  0.00  0.00    +0.000 A 
ATOM     60  C   UNL     1     -29.431   8.330   7.877  0.00  0.00    +0.000 A 
ATOM     61  C   UNL     1     -30.244   9.253   5.371  0.00  0.00    +0.000 A 
ATOM     62  C   UNL     1     -30.417   7.644   7.167  0.00  0.00    +0.000 A 
ATOM     63  C   UNL     1     -30.824   8.106   5.915  0.00  0.00    +0.000 A 
ENDBRANCH  57  58
ENDBRANCH  55  57
ENDBRANCH   8  55
TORSDOF 16
ENDMDL
MODEL 7
REMARK VINA RESULT:    -5.216      1.529      2.044
REMARK INTER + INTRA:         -13.213
REMARK INTER:                 -10.005
REMARK INTRA:                  -3.208
REMARK UNBOUND:                -3.423
REMARK  Name = ./IMPHY000002_3D.pdb
REMARK  25 active torsions:
REMARK  status: ('A' for Active; 'I' for Inactive)
REMARK    1  A    between atoms: O_2  and  C_21
REMARK    2  A    between atoms: O_2  and  C_37
REMARK    3  A    between atoms: O_3  and  C_23
REMARK    4  A    between atoms: O_3  and  C_36
REMARK    5  A    between atoms: O_4  and  C_34
REMARK    6  A    between atoms: O_4  and  C_39
REMARK    7  A    between atoms: O_9  and  C_46
REMARK    8  A    between atoms: O_9  and  C_54
REMARK    9  A    between atoms: O_10  and  C_48
REMARK   10  A    between atoms: O_10  and  C_55
REMARK   11  A    between atoms: O_12  and  C_56
REMARK   12  A    between atoms: O_13  and  C_57
REMARK   13  A    between atoms: O_13  and  C_61
REMARK   14  A    between atoms: O_14  and  C_59
REMARK   15  A    between atoms: C_17  and  C_28
REMARK   16  A    between atoms: C_19  and  C_30
REMARK   17  A    between atoms: C_24  and  C_33
REMARK   18  A    between atoms: C_33  and  C_35
REMARK   19  A    between atoms: C_36  and  C_38
REMARK   20  A    between atoms: C_37  and  C_40
REMARK   21  A    between atoms: C_38  and  C_41
REMARK   22  A    between atoms: C_38  and  C_43
REMARK   23  A    between atoms: C_41  and  C_49
REMARK   24  A    between atoms: C_47  and  C_52
REMARK   25  A    between atoms: C_58  and  C_60
REMARK                            x       y       z     vdW  Elec       q    Type
REMARK                         _______ _______ _______ _____ _____    ______ ____
ROOT
ATOM      1  O   UNL     1     -29.119   7.541   7.203  0.00  0.00    +0.000 OA
ATOM      2  C   UNL     1     -29.850   8.557   7.903  0.00  0.00    +0.000 C 
ATOM      3  C   UNL     1     -29.522   7.211   8.537  0.00  0.00    +0.000 C 
ATOM      4  C   UNL     1     -29.074   9.820   8.208  0.00  0.00    +0.000 C 
ATOM      5  C   UNL     1     -28.402   7.117   9.570  0.00  0.00    +0.000 C 
ATOM      6  C   UNL     1     -27.755   5.662   9.553  0.00  0.00    +0.000 C 
ATOM      7  C   UNL     1     -31.207   8.886   7.338  0.00  0.00    +0.000 C 
ATOM      8  C   UNL     1     -28.160   9.677   9.451  0.00  0.00    +0.000 C 
ATOM      9  C   UNL     1     -30.583   6.148   8.606  0.00  0.00    +0.000 C 
ATOM     10  C   UNL     1     -27.411   8.313   9.479  0.00  0.00    +0.000 C 
ATOM     11  C   UNL     1     -30.237  10.854   8.372  0.00  0.00    +0.000 C 
ATOM     12  C   UNL     1     -28.921   4.623   9.712  0.00  0.00    +0.000 C 
ATOM     13  C   UNL     1     -31.254  10.420   7.302  0.00  0.00    +0.000 C 
ATOM     14  C   UNL     1     -29.976   4.751   8.609  0.00  0.00    +0.000 C 
ATOM     15  C   UNL     1     -28.228  10.221   6.965  0.00  0.00    +0.000 C 
ATOM     16  C   UNL     1     -26.787   5.437  10.750  0.00  0.00    +0.000 C 
ATOM     17  C   UNL     1     -26.955   5.440   8.244  0.00  0.00    +0.000 C 
ATOM     18  C   UNL     1     -28.436   3.172   9.832  0.00  0.00    +0.000 C 
ATOM     19  C   UNL     1     -26.326   3.990  10.926  0.00  0.00    +0.000 C 
ATOM     20  C   UNL     1     -27.485   3.001  11.019  0.00  0.00    +0.000 C 
ENDROOT
BRANCH  11  22
ATOM     21  O   UNL     1     -30.588  10.106  10.651  0.00  0.00    +0.000 OA
ATOM     22  C   UNL     1     -30.964  10.822   9.723  0.00  0.00    +0.000 C 
ATOM     23  C   UNL     1     -32.246  11.610   9.825  0.00  0.00    +0.000 C 
ENDBRANCH  11  22
BRANCH  20  24
ATOM     24  O   UNL     1     -26.916   1.689  11.031  0.00  0.00    +0.000 OA
BRANCH  24  26
ATOM     25  O   UNL     1     -27.064   0.637   8.944  0.00  0.00    +0.000 OA
ATOM     26  C   UNL     1     -26.216   1.346   9.837  0.00  0.00    +0.000 C 
ATOM     27  C   UNL     1     -25.058   0.448  10.237  0.00  0.00    +0.000 C 
ATOM     28  C   UNL     1     -24.254   0.001   9.017  0.00  0.00    +0.000 C 
ATOM     29  C   UNL     1     -26.406   0.334   7.714  0.00  0.00    +0.000 C 
ATOM     30  C   UNL     1     -25.179  -0.580   7.921  0.00  0.00    +0.000 C 
ATOM     31  C   UNL     1     -27.439  -0.321   6.799  0.00  0.00    +0.000 C 
BRANCH  28  32
ATOM     32  O   UNL     1     -23.320  -1.014   9.428  0.00  0.00    +0.000 OA
ATOM     33  C   UNL     1     -22.713  -0.747  10.686  0.00  0.00    +0.000 C 
ENDBRANCH  28  32
BRANCH  30  34
ATOM     34  O   UNL     1     -24.525  -0.663   6.643  0.00  0.00    +0.000 OA
BRANCH  34  36
ATOM     35  O   UNL     1     -23.796   1.138   5.365  0.00  0.00    +0.000 OA
ATOM     36  C   UNL     1     -23.462   0.274   6.453  0.00  0.00    +0.000 C 
ATOM     37  C   UNL     1     -22.194  -0.534   6.081  0.00  0.00    +0.000 C 
ATOM     38  C   UNL     1     -21.315   0.245   5.080  0.00  0.00    +0.000 C 
ATOM     39  C   UNL     1     -22.868   2.232   5.257  0.00  0.00    +0.000 C 
ATOM     40  C   UNL     1     -21.401   1.757   5.332  0.00  0.00    +0.000 C 
ATOM     41  C   UNL     1     -23.161   2.906   3.921  0.00  0.00    +0.000 C 
BRANCH  40  42
ATOM     42  O   UNL     1     -20.874   2.056   6.634  0.00  0.00    +0.000 OA
ATOM     43  H   UNL     1     -19.972   2.398   6.486  0.00  0.00    +0.000 HD
ENDBRANCH  40  42
BRANCH  38  44
ATOM     44  O   UNL     1     -19.934  -0.162   5.196  0.00  0.00    +0.000 OA
ATOM     45  C   UNL     1     -19.162   0.204   4.055  0.00  0.00    +0.000 C 
ENDBRANCH  38  44
BRANCH  37  46
ATOM     46  O   UNL     1     -21.455  -0.876   7.271  0.00  0.00    +0.000 OA
ATOM     47  H   UNL     1     -21.879  -1.678   7.629  0.00  0.00    +0.000 HD
ENDBRANCH  37  46
ENDBRANCH  34  36
ENDBRANCH  30  34
ENDBRANCH  24  26
ENDBRANCH  20  24
BRANCH  10  48
ATOM     48  O   UNL     1     -26.596   8.322  10.681  0.00  0.00    +0.000 OA
BRANCH  48  50
ATOM     49  O   UNL     1     -24.666   8.559   9.451  0.00  0.00    +0.000 OA
ATOM     50  C   UNL     1     -25.247   8.435  10.521  0.00  0.00    +0.000 C 
BRANCH  50  51
ATOM     51  C   UNL     1     -24.568   8.401  11.880  0.00  0.00    +0.000 C 
ATOM     52  C   UNL     1     -25.560   8.820  12.964  0.00  0.00    +0.000 C 
BRANCH  51  53
ATOM     53  C   UNL     1     -23.986   7.000  12.110  0.00  0.00    +0.000 C 
ATOM     54  C   UNL     1     -22.818   6.676  11.192  0.00  0.00    +0.000 C 
ENDBRANCH  51  53
ENDBRANCH  50  51
ENDBRANCH  48  50
ENDBRANCH  10  48
BRANCH   8  55
ATOM     55  O   UNL     1     -27.145  10.720   9.434  0.00  0.00    +0.000 OA
BRANCH  55  57
ATOM     56  O   UNL     1     -26.960  11.483  11.584  0.00  0.00    +0.000 OA
ATOM     57  C   UNL     1     -27.179  11.664  10.398  0.00  0.00    +0.000 C 
BRANCH  57  58
ATOM     58  C   UNL     1     -27.527  12.989   9.818  0.00  0.00    +0.000 A 
ATOM     59  C   UNL     1     -27.278  13.311   8.477  0.00  0.00    +0.000 A 
ATOM     60  C   UNL     1     -28.123  13.942  10.655  0.00  0.00    +0.000 A 
ATOM     61  C   UNL     1     -27.618  14.573   7.983  0.00  0.00    +0.000 A 
ATOM     62  C   UNL     1     -28.463  15.201  10.158  0.00  0.00    +0.000 A 
ATOM     63  C   UNL     1     -28.209  15.516   8.823  0.00  0.00    +0.000 A 
ENDBRANCH  57  58
ENDBRANCH  55  57
ENDBRANCH   8  55
TORSDOF 16
ENDMDL
MODEL 8
REMARK VINA RESULT:    -5.177      5.573      9.458
REMARK INTER + INTRA:         -13.140
REMARK INTER:                  -9.674
REMARK INTRA:                  -3.467
REMARK UNBOUND:                -3.423
REMARK  Name = ./IMPHY000002_3D.pdb
REMARK  25 active torsions:
REMARK  status: ('A' for Active; 'I' for Inactive)
REMARK    1  A    between atoms: O_2  and  C_21
REMARK    2  A    between atoms: O_2  and  C_37
REMARK    3  A    between atoms: O_3  and  C_23
REMARK    4  A    between atoms: O_3  and  C_36
REMARK    5  A    between atoms: O_4  and  C_34
REMARK    6  A    between atoms: O_4  and  C_39
REMARK    7  A    between atoms: O_9  and  C_46
REMARK    8  A    between atoms: O_9  and  C_54
REMARK    9  A    between atoms: O_10  and  C_48
REMARK   10  A    between atoms: O_10  and  C_55
REMARK   11  A    between atoms: O_12  and  C_56
REMARK   12  A    between atoms: O_13  and  C_57
REMARK   13  A    between atoms: O_13  and  C_61
REMARK   14  A    between atoms: O_14  and  C_59
REMARK   15  A    between atoms: C_17  and  C_28
REMARK   16  A    between atoms: C_19  and  C_30
REMARK   17  A    between atoms: C_24  and  C_33
REMARK   18  A    between atoms: C_33  and  C_35
REMARK   19  A    between atoms: C_36  and  C_38
REMARK   20  A    between atoms: C_37  and  C_40
REMARK   21  A    between atoms: C_38  and  C_41
REMARK   22  A    between atoms: C_38  and  C_43
REMARK   23  A    between atoms: C_41  and  C_49
REMARK   24  A    between atoms: C_47  and  C_52
REMARK   25  A    between atoms: C_58  and  C_60
REMARK                            x       y       z     vdW  Elec       q    Type
REMARK                         _______ _______ _______ _____ _____    ______ ____
ROOT
ATOM      1  O   UNL     1     -25.533   7.870  13.165  0.00  0.00    +0.000 OA
ATOM      2  C   UNL     1     -24.556   8.741  13.751  0.00  0.00    +0.000 C 
ATOM      3  C   UNL     1     -24.954   8.840  12.284  0.00  0.00    +0.000 C 
ATOM      4  C   UNL     1     -25.081   9.686  14.811  0.00  0.00    +0.000 C 
ATOM      5  C   UNL     1     -25.880   9.965  11.828  0.00  0.00    +0.000 C 
ATOM      6  C   UNL     1     -26.718   9.509  10.553  0.00  0.00    +0.000 C 
ATOM      7  C   UNL     1     -23.285   8.075  14.209  0.00  0.00    +0.000 C 
ATOM      8  C   UNL     1     -25.776  10.934  14.211  0.00  0.00    +0.000 C 
ATOM      9  C   UNL     1     -24.059   8.246  11.232  0.00  0.00    +0.000 C 
ATOM     10  C   UNL     1     -26.692  10.577  13.005  0.00  0.00    +0.000 C 
ATOM     11  C   UNL     1     -23.773   9.992  15.614  0.00  0.00    +0.000 C 
ATOM     12  C   UNL     1     -25.701   8.984   9.480  0.00  0.00    +0.000 C 
ATOM     13  C   UNL     1     -23.030   8.645  15.613  0.00  0.00    +0.000 C 
ATOM     14  C   UNL     1     -24.847   7.823  10.000  0.00  0.00    +0.000 C 
ATOM     15  C   UNL     1     -26.065   8.922  15.744  0.00  0.00    +0.000 C 
ATOM     16  C   UNL     1     -27.485  10.696   9.902  0.00  0.00    +0.000 C 
ATOM     17  C   UNL     1     -27.758   8.429  10.947  0.00  0.00    +0.000 C 
ATOM     18  C   UNL     1     -26.357   8.616   8.142  0.00  0.00    +0.000 C 
ATOM     19  C   UNL     1     -28.108  10.375   8.542  0.00  0.00    +0.000 C 
ATOM     20  C   UNL     1     -27.101   9.812   7.542  0.00  0.00    +0.000 C 
ENDROOT
BRANCH  11  22
ATOM     21  O   UNL     1     -22.732  11.151  13.756  0.00  0.00    +0.000 OA
ATOM     22  C   UNL     1     -22.834  11.025  14.977  0.00  0.00    +0.000 C 
ATOM     23  C   UNL     1     -21.935  11.795  15.911  0.00  0.00    +0.000 C 
ENDBRANCH  11  22
BRANCH  20  24
ATOM     24  O   UNL     1     -27.839   9.422   6.381  0.00  0.00    +0.000 OA
BRANCH  24  26
ATOM     25  O   UNL     1     -29.586   7.945   6.879  0.00  0.00    +0.000 OA
ATOM     26  C   UNL     1     -29.242   9.295   6.598  0.00  0.00    +0.000 C 
ATOM     27  C   UNL     1     -29.937   9.724   5.316  0.00  0.00    +0.000 C 
ATOM     28  C   UNL     1     -31.454   9.600   5.437  0.00  0.00    +0.000 C 
ATOM     29  C   UNL     1     -30.978   7.799   7.161  0.00  0.00    +0.000 C 
ATOM     30  C   UNL     1     -31.860   8.200   5.958  0.00  0.00    +0.000 C 
ATOM     31  C   UNL     1     -31.208   6.342   7.557  0.00  0.00    +0.000 C 
BRANCH  28  32
ATOM     32  O   UNL     1     -32.038   9.801   4.136  0.00  0.00    +0.000 OA
ATOM     33  C   UNL     1     -31.582   8.871   3.163  0.00  0.00    +0.000 C 
ENDBRANCH  28  32
BRANCH  30  34
ATOM     34  O   UNL     1     -33.217   8.165   6.431  0.00  0.00    +0.000 OA
BRANCH  34  36
ATOM     35  O   UNL     1     -33.307   6.457   4.856  0.00  0.00    +0.000 OA
ATOM     36  C   UNL     1     -34.093   7.322   5.677  0.00  0.00    +0.000 C 
ATOM     37  C   UNL     1     -34.947   8.239   4.768  0.00  0.00    +0.000 C 
ATOM     38  C   UNL     1     -35.245   7.556   3.416  0.00  0.00    +0.000 C 
ATOM     39  C   UNL     1     -34.117   5.445   4.232  0.00  0.00    +0.000 C 
ATOM     40  C   UNL     1     -35.389   6.036   3.588  0.00  0.00    +0.000 C 
ATOM     41  C   UNL     1     -33.230   4.777   3.187  0.00  0.00    +0.000 C 
BRANCH  40  42
ATOM     42  O   UNL     1     -36.518   5.755   4.428  0.00  0.00    +0.000 OA
ATOM     43  H   UNL     1     -37.004   5.029   3.990  0.00  0.00    +0.000 HD
ENDBRANCH  40  42
BRANCH  38  44
ATOM     44  O   UNL     1     -36.468   8.071   2.846  0.00  0.00    +0.000 OA
ATOM     45  C   UNL     1     -36.348   8.334   1.451  0.00  0.00    +0.000 C 
ENDBRANCH  38  44
BRANCH  37  46
ATOM     46  O   UNL     1     -36.164   8.615   5.443  0.00  0.00    +0.000 OA
ATOM     47  H   UNL     1     -36.892   8.238   4.915  0.00  0.00    +0.000 HD
ENDBRANCH  37  46
ENDBRANCH  34  36
ENDBRANCH  30  34
ENDBRANCH  24  26
ENDBRANCH  20  24
BRANCH  10  48
ATOM     48  O   UNL     1     -27.277  11.828  12.555  0.00  0.00    +0.000 OA
BRANCH  48  50
ATOM     49  O   UNL     1     -29.431  11.239  13.104  0.00  0.00    +0.000 OA
ATOM     50  C   UNL     1     -28.566  12.083  12.918  0.00  0.00    +0.000 C 
BRANCH  50  51
ATOM     51  C   UNL     1     -28.763  13.581  13.075  0.00  0.00    +0.000 C 
ATOM     52  C   UNL     1     -27.787  14.330  12.169  0.00  0.00    +0.000 C 
BRANCH  51  53
ATOM     53  C   UNL     1     -30.231  13.922  12.784  0.00  0.00    +0.000 C 
ATOM     54  C   UNL     1     -30.972  14.470  13.993  0.00  0.00    +0.000 C 
ENDBRANCH  51  53
ENDBRANCH  50  51
ENDBRANCH  48  50
ENDBRANCH  10  48
BRANCH   8  55
ATOM     55  O   UNL     1     -26.620  11.555  15.219  0.00  0.00    +0.000 OA
BRANCH  55  57
ATOM     56  O   UNL     1     -25.133  13.236  15.670  0.00  0.00    +0.000 OA
ATOM     57  C   UNL     1     -26.254  12.757  15.712  0.00  0.00    +0.000 C 
BRANCH  57  58
ATOM     58  C   UNL     1     -27.420  13.444  16.331  0.00  0.00    +0.000 A 
ATOM     59  C   UNL     1     -27.437  14.824  16.576  0.00  0.00    +0.000 A 
ATOM     60  C   UNL     1     -28.536  12.670  16.679  0.00  0.00    +0.000 A 
ATOM     61  C   UNL     1     -28.554  15.418  17.167  0.00  0.00    +0.000 A 
ATOM     62  C   UNL     1     -29.651  13.268  17.268  0.00  0.00    +0.000 A 
ATOM     63  C   UNL     1     -29.659  14.641  17.512  0.00  0.00    +0.000 A 
ENDBRANCH  57  58
ENDBRANCH  55  57
ENDBRANCH   8  55
TORSDOF 16
ENDMDL
MODEL 9
REMARK VINA RESULT:    -5.155      4.586      7.738
REMARK INTER + INTRA:         -13.099
REMARK INTER:                 -10.249
REMARK INTRA:                  -2.850
REMARK UNBOUND:                -3.423
REMARK  Name = ./IMPHY000002_3D.pdb
REMARK  25 active torsions:
REMARK  status: ('A' for Active; 'I' for Inactive)
REMARK    1  A    between atoms: O_2  and  C_21
REMARK    2  A    between atoms: O_2  and  C_37
REMARK    3  A    between atoms: O_3  and  C_23
REMARK    4  A    between atoms: O_3  and  C_36
REMARK    5  A    between atoms: O_4  and  C_34
REMARK    6  A    between atoms: O_4  and  C_39
REMARK    7  A    between atoms: O_9  and  C_46
REMARK    8  A    between atoms: O_9  and  C_54
REMARK    9  A    between atoms: O_10  and  C_48
REMARK   10  A    between atoms: O_10  and  C_55
REMARK   11  A    between atoms: O_12  and  C_56
REMARK   12  A    between atoms: O_13  and  C_57
REMARK   13  A    between atoms: O_13  and  C_61
REMARK   14  A    between atoms: O_14  and  C_59
REMARK   15  A    between atoms: C_17  and  C_28
REMARK   16  A    between atoms: C_19  and  C_30
REMARK   17  A    between atoms: C_24  and  C_33
REMARK   18  A    between atoms: C_33  and  C_35
REMARK   19  A    between atoms: C_36  and  C_38
REMARK   20  A    between atoms: C_37  and  C_40
REMARK   21  A    between atoms: C_38  and  C_41
REMARK   22  A    between atoms: C_38  and  C_43
REMARK   23  A    between atoms: C_41  and  C_49
REMARK   24  A    between atoms: C_47  and  C_52
REMARK   25  A    between atoms: C_58  and  C_60
REMARK                            x       y       z     vdW  Elec       q    Type
REMARK                         _______ _______ _______ _____ _____    ______ ____
ROOT
ATOM      1  O   UNL     1     -26.339   8.827  15.173  0.00  0.00    +0.000 OA
ATOM      2  C   UNL     1     -26.407  10.257  15.075  0.00  0.00    +0.000 C 
ATOM      3  C   UNL     1     -25.221   9.463  14.542  0.00  0.00    +0.000 C 
ATOM      4  C   UNL     1     -27.505  10.794  14.183  0.00  0.00    +0.000 C 
ATOM      5  C   UNL     1     -25.082   9.234  13.039  0.00  0.00    +0.000 C 
ATOM      6  C   UNL     1     -24.295   7.878  12.757  0.00  0.00    +0.000 C 
ATOM      7  C   UNL     1     -26.370  10.999  16.386  0.00  0.00    +0.000 C 
ATOM      8  C   UNL     1     -27.132  10.749  12.680  0.00  0.00    +0.000 C 
ATOM      9  C   UNL     1     -23.952   9.399  15.345  0.00  0.00    +0.000 C 
ATOM     10  C   UNL     1     -26.431   9.417  12.285  0.00  0.00    +0.000 C 
ATOM     11  C   UNL     1     -27.686  12.236  14.765  0.00  0.00    +0.000 C 
ATOM     12  C   UNL     1     -22.952   7.933  13.567  0.00  0.00    +0.000 C 
ATOM     13  C   UNL     1     -27.499  12.034  16.280  0.00  0.00    +0.000 C 
ATOM     14  C   UNL     1     -23.180   8.115  15.070  0.00  0.00    +0.000 C 
ATOM     15  C   UNL     1     -28.815   9.993  14.434  0.00  0.00    +0.000 C 
ATOM     16  C   UNL     1     -23.910   7.726  11.257  0.00  0.00    +0.000 C 
ATOM     17  C   UNL     1     -25.162   6.656  13.153  0.00  0.00    +0.000 C 
ATOM     18  C   UNL     1     -22.027   6.738  13.300  0.00  0.00    +0.000 C 
ATOM     19  C   UNL     1     -22.947   6.573  10.967  0.00  0.00    +0.000 C 
ATOM     20  C   UNL     1     -21.678   6.627  11.814  0.00  0.00    +0.000 C 
ENDROOT
BRANCH  11  22
ATOM     21  O   UNL     1     -25.435  13.100  14.507  0.00  0.00    +0.000 OA
ATOM     22  C   UNL     1     -26.641  13.265  14.316  0.00  0.00    +0.000 C 
ATOM     23  C   UNL     1     -27.163  14.560  13.745  0.00  0.00    +0.000 C 
ENDBRANCH  11  22
BRANCH  20  24
ATOM     24  O   UNL     1     -20.948   5.426  11.549  0.00  0.00    +0.000 OA
BRANCH  24  26
ATOM     25  O   UNL     1     -19.419   4.419  10.089  0.00  0.00    +0.000 OA
ATOM     26  C   UNL     1     -19.774   5.619  10.764  0.00  0.00    +0.000 C 
ATOM     27  C   UNL     1     -18.653   6.000  11.717  0.00  0.00    +0.000 C 
ATOM     28  C   UNL     1     -17.336   6.205  10.971  0.00  0.00    +0.000 C 
ATOM     29  C   UNL     1     -18.282   4.601   9.247  0.00  0.00    +0.000 C 
ATOM     30  C   UNL     1     -17.024   5.003  10.047  0.00  0.00    +0.000 C 
ATOM     31  C   UNL     1     -18.064   3.290   8.493  0.00  0.00    +0.000 C 
BRANCH  28  32
ATOM     32  O   UNL     1     -16.277   6.341  11.937  0.00  0.00    +0.000 OA
ATOM     33  C   UNL     1     -15.910   7.692  12.187  0.00  0.00    +0.000 C 
ENDBRANCH  28  32
BRANCH  30  34
ATOM     34  O   UNL     1     -16.014   5.313   9.072  0.00  0.00    +0.000 OA
BRANCH  34  36
ATOM     35  O   UNL     1     -15.143   3.222   9.601  0.00  0.00    +0.000 OA
ATOM     36  C   UNL     1     -14.809   4.551   9.195  0.00  0.00    +0.000 C 
ATOM     37  C   UNL     1     -13.953   5.214  10.301  0.00  0.00    +0.000 C 
ATOM     38  C   UNL     1     -13.164   4.156  11.100  0.00  0.00    +0.000 C 
ATOM     39  C   UNL     1     -14.000   2.350   9.540  0.00  0.00    +0.000 C 
ATOM     40  C   UNL     1     -12.755   2.980  10.201  0.00  0.00    +0.000 C 
ATOM     41  C   UNL     1     -14.410   1.064  10.249  0.00  0.00    +0.000 C 
BRANCH  40  42
ATOM     42  O   UNL     1     -11.863   3.446   9.178  0.00  0.00    +0.000 OA
ATOM     43  H   UNL     1     -12.376   3.434   8.347  0.00  0.00    +0.000 HD
ENDBRANCH  40  42
BRANCH  38  44
ATOM     44  O   UNL     1     -11.969   4.736  11.667  0.00  0.00    +0.000 OA
ATOM     45  C   UNL     1     -11.569   4.088  12.871  0.00  0.00    +0.000 C 
ENDBRANCH  38  44
BRANCH  37  46
ATOM     46  O   UNL     1     -13.072   6.199   9.725  0.00  0.00    +0.000 OA
ATOM     47  H   UNL     1     -12.199   6.050  10.133  0.00  0.00    +0.000 HD
ENDBRANCH  37  46
ENDBRANCH  34  36
ENDBRANCH  30  34
ENDBRANCH  24  26
ENDBRANCH  20  24
BRANCH  10  48
ATOM     48  O   UNL     1     -26.150   9.512  10.863  0.00  0.00    +0.000 OA
BRANCH  48  50
ATOM     49  O   UNL     1     -27.759   7.947  10.360  0.00  0.00    +0.000 OA
ATOM     50  C   UNL     1     -26.822   8.664  10.035  0.00  0.00    +0.000 C 
BRANCH  50  51
ATOM     51  C   UNL     1     -26.242   8.755   8.634  0.00  0.00    +0.000 C 
ATOM     52  C   UNL     1     -26.476   7.441   7.890  0.00  0.00    +0.000 C 
BRANCH  51  53
ATOM     53  C   UNL     1     -26.859   9.965   7.919  0.00  0.00    +0.000 C 
ATOM     54  C   UNL     1     -28.070   9.610   7.070  0.00  0.00    +0.000 C 
ENDBRANCH  51  53
ENDBRANCH  50  51
ENDBRANCH  48  50
ENDBRANCH  10  48
BRANCH   8  55
ATOM     55  O   UNL     1     -28.339  10.851  11.874  0.00  0.00    +0.000 OA
BRANCH  55  57
ATOM     56  O   UNL     1     -27.676  12.793  10.859  0.00  0.00    +0.000 OA
ATOM     57  C   UNL     1     -28.402  11.816  10.932  0.00  0.00    +0.000 C 
BRANCH  57  58
ATOM     58  C   UNL     1     -29.499  11.531   9.968  0.00  0.00    +0.000 A 
ATOM     59  C   UNL     1     -30.285  10.374  10.043  0.00  0.00    +0.000 A 
ATOM     60  C   UNL     1     -29.743  12.463   8.949  0.00  0.00    +0.000 A 
ATOM     61  C   UNL     1     -31.298  10.151   9.108  0.00  0.00    +0.000 A 
ATOM     62  C   UNL     1     -30.758  12.238   8.017  0.00  0.00    +0.000 A 
ATOM     63  C   UNL     1     -31.534  11.082   8.097  0.00  0.00    +0.000 A 
ENDBRANCH  57  58
ENDBRANCH  55  57
ENDBRANCH   8  55
TORSDOF 16
ENDMDL
