MODEL 1
REMARK VINA RESULT:    -4.878      0.000      0.000
REMARK INTER + INTRA:          39.750
REMARK INTER:                 -15.428
REMARK INTRA:                  55.179
REMARK UNBOUND:                55.179
REMARK  Name = IMPHY000332
REMARK  58 active torsions:
REMARK  status: ('A' for Active; 'I' for Inactive)
REMARK    1  A    between atoms: O_1  and  C_56
REMARK    2  A    between atoms: O_1  and  C_70
REMARK    3  A    between atoms: O_2  and  C_54
REMARK    4  A    between atoms: O_3  and  C_64
REMARK    5  A    between atoms: O_3  and  C_73
REMARK    6  A    between atoms: O_4  and  C_67
REMARK    7  A    between atoms: O_4  and  C_72
REMARK    8  A    between atoms: O_7  and  C_71
REMARK    9  A    between atoms: O_7  and  C_83
REMARK   10  A    between atoms: O_10  and  C_74
REMARK   11  A    between atoms: O_11  and  C_77
REMARK   12  A    between atoms: O_11  and  C_88
REMARK   13  A    between atoms: O_12  and  C_76
REMARK   14  A    between atoms: O_13  and  C_79
REMARK   15  A    between atoms: O_14  and  C_81
REMARK   16  A    between atoms: O_14  and  C_93
REMARK   17  A    between atoms: O_16  and  C_82
REMARK   18  A    between atoms: O_17  and  C_86
REMARK   19  A    between atoms: O_17  and  C_100
REMARK   20  A    between atoms: O_19  and  C_87
REMARK   21  A    between atoms: O_20  and  C_89
REMARK   22  A    between atoms: O_22  and  C_91
REMARK   23  A    between atoms: O_23  and  C_94
REMARK   24  A    between atoms: O_24  and  C_96
REMARK   25  A    between atoms: O_26  and  C_97
REMARK   26  A    between atoms: O_27  and  C_99
REMARK   27  A    between atoms: O_28  and  C_101
REMARK   28  A    between atoms: O_28  and  C_112
REMARK   29  A    between atoms: O_29  and  C_102
REMARK   30  A    between atoms: O_30  and  C_104
REMARK   31  A    between atoms: O_31  and  C_105
REMARK   32  A    between atoms: O_32  and  C_106
REMARK   33  A    between atoms: O_33  and  C_110
REMARK   34  A    between atoms: O_34  and  C_111
REMARK   35  A    between atoms: O_36  and  C_115
REMARK   36  A    between atoms: O_37  and  C_116
REMARK   37  A    between atoms: O_38  and  C_118
REMARK   38  A    between atoms: O_39  and  C_119
REMARK   39  A    between atoms: C_40  and  C_55
REMARK   40  A    between atoms: C_42  and  C_58
REMARK   41  A    between atoms: C_43  and  C_60
REMARK   42  A    between atoms: C_48  and  C_65
REMARK   43  A    between atoms: C_48  and  C_66
REMARK   44  A    between atoms: C_53  and  C_67
REMARK   45  A    between atoms: C_63  and  C_68
REMARK   46  A    between atoms: C_63  and  C_69
REMARK   47  A    between atoms: C_73  and  C_78
REMARK   48  A    between atoms: C_75  and  C_81
REMARK   49  A    between atoms: C_78  and  C_84
REMARK   50  A    between atoms: C_80  and  C_86
REMARK   51  A    between atoms: C_85  and  C_90
REMARK   52  A    between atoms: C_90  and  C_95
REMARK   53  A    between atoms: C_95  and  C_101
REMARK   54  A    between atoms: C_101  and  C_107
REMARK   55  A    between atoms: C_101  and  C_108
REMARK   56  A    between atoms: C_103  and  C_110
REMARK   57  A    between atoms: C_109  and  C_113
REMARK   58  A    between atoms: C_117  and  C_119
REMARK                            x       y       z     vdW  Elec       q    Type
REMARK                         _______ _______ _______ _____ _____    ______ ____
ROOT
ATOM      1  C   UNL     1     -15.969   2.892   6.501  0.00  0.00    +0.000 C 
ATOM      2  C   UNL     1     -16.784   3.223   6.028  0.00  0.00    +0.000 C 
ATOM      3  C   UNL     1     -17.031   2.871   5.079  0.00  0.00    +0.000 C 
ATOM      4  C   UNL     1     -15.744   3.239   7.412  0.00  0.00    +0.000 C 
ATOM      5  C   UNL     1     -16.421   2.164   4.618  0.00  0.00    +0.000 C 
ATOM      6  C   UNL     1     -15.343   2.185   6.060  0.00  0.00    +0.000 C 
ATOM      7  C   UNL     1     -16.335   3.918   7.848  0.00  0.00    +0.000 C 
ATOM      8  C   UNL     1     -15.571   1.819   5.113  0.00  0.00    +0.000 C 
ATOM      9  C   UNL     1     -16.657   1.782   3.630  0.00  0.00    +0.000 C 
ATOM     10  C   UNL     1     -16.113   4.289   8.797  0.00  0.00    +0.000 C 
ATOM     11  C   UNL     1     -17.375   3.902   6.464  0.00  0.00    +0.000 C 
ATOM     12  C   UNL     1     -14.891   2.884   7.894  0.00  0.00    +0.000 C 
ATOM     13  C   UNL     1     -17.921   3.245   4.584  0.00  0.00    +0.000 C 
ATOM     14  C   UNL     1     -15.266   3.948   9.297  0.00  0.00    +0.000 C 
ATOM     15  C   UNL     1     -14.650   3.241   8.842  0.00  0.00    +0.000 C 
ATOM     16  C   UNL     1     -15.130   2.378   6.682  0.00  0.00    +0.000 C 
ATOM     17  C   UNL     1     -17.543   2.142   3.116  0.00  0.00    +0.000 C 
ATOM     18  C   UNL     1     -17.150   4.249   7.375  0.00  0.00    +0.000 C 
ATOM     19  C   UNL     1     -17.617   3.550   5.521  0.00  0.00    +0.000 C 
ATOM     20  C   UNL     1     -18.178   2.878   3.596  0.00  0.00    +0.000 C 
ATOM     21  C   UNL     1     -14.983   2.604   7.275  0.00  0.00    +0.000 C 
ATOM     22  C   UNL     1     -16.770   5.025   9.249  0.00  0.00    +0.000 C 
ATOM     23  C   UNL     1     -15.014   4.320  10.285  0.00  0.00    +0.000 C 
ATOM     24  C   UNL     1     -16.539   5.411  10.237  0.00  0.00    +0.000 C 
ATOM     25  C   UNL     1     -15.656   5.056  10.758  0.00  0.00    +0.000 C 
ATOM     26  C   UNL     1     -15.844   1.200   3.656  0.00  0.00    +0.000 C 
ATOM     27  C   UNL     1     -16.443   1.189   2.855  0.00  0.00    +0.000 C 
ATOM     28  C   UNL     1     -16.760   6.007  11.008  0.00  0.00    +0.000 C 
ATOM     29  C   UNL     1     -17.353   5.990  10.205  0.00  0.00    +0.000 C 
ENDROOT
BRANCH  15  30
ATOM     30  O   UNL     1     -13.833   2.907   9.313  0.00  0.00    +0.000 OA
ATOM     31  H   UNL     1     -13.883   2.650   9.875  0.00  0.00    +0.000 HD
ENDBRANCH  15  30
BRANCH  14  33
ATOM     32  O   UNL     1     -13.637   3.293  10.257  0.00  0.00    +0.000 OA
ATOM     33  C   UNL     1     -14.451   3.621   9.777  0.00  0.00    +0.000 C 
BRANCH  33  34
ATOM     34  O   UNL     1     -14.257   2.641   9.820  0.00  0.00    +0.000 OA
BRANCH  34  36
ATOM     35  O   UNL     1     -15.247   2.504  11.235  0.00  0.00    +0.000 OA
ATOM     36  C   UNL     1     -14.682   2.077  10.528  0.00  0.00    +0.000 C 
ATOM     37  C   UNL     1     -14.543   1.087  10.530  0.00  0.00    +0.000 C 
ATOM     38  C   UNL     1     -14.968   0.524  11.238  0.00  0.00    +0.000 C 
ATOM     39  C   UNL     1     -15.673   1.940  11.943  0.00  0.00    +0.000 C 
ATOM     40  C   UNL     1     -15.533   0.951  11.944  0.00  0.00    +0.000 C 
BRANCH  38  41
ATOM     41  O   UNL     1     -14.829  -0.467  11.240  0.00  0.00    +0.000 OA
ATOM     42  H   UNL     1     -14.264  -0.700  11.341  0.00  0.00    +0.000 HD
ENDBRANCH  38  41
BRANCH  40  43
ATOM     43  O   UNL     1     -15.958   0.386  12.652  0.00  0.00    +0.000 OA
ATOM     44  H   UNL     1     -15.784   0.446  13.243  0.00  0.00    +0.000 HD
ENDBRANCH  40  43
BRANCH  39  45
ATOM     45  C   UNL     1     -16.237   2.367  12.648  0.00  0.00    +0.000 C 
BRANCH  45  46
ATOM     46  O   UNL     1     -15.815   2.704  13.490  0.00  0.00    +0.000 OA
BRANCH  46  48
ATOM     47  O   UNL     1     -17.105   3.807  13.832  0.00  0.00    +0.000 OA
ATOM     48  C   UNL     1     -16.358   3.224  14.149  0.00  0.00    +0.000 C 
ATOM     49  C   UNL     1     -16.153   3.160  15.126  0.00  0.00    +0.000 C 
ATOM     50  C   UNL     1     -16.696   3.680  15.785  0.00  0.00    +0.000 C 
ATOM     51  C   UNL     1     -17.648   4.327  14.492  0.00  0.00    +0.000 C 
ATOM     52  C   UNL     1     -17.444   4.264  15.468  0.00  0.00    +0.000 C 
ATOM     53  C   UNL     1     -18.396   4.911  14.174  0.00  0.00    +0.000 C 
BRANCH  52  54
ATOM     54  O   UNL     1     -17.986   4.783  16.128  0.00  0.00    +0.000 OA
ATOM     55  H   UNL     1     -18.574   4.934  15.996  0.00  0.00    +0.000 HD
ENDBRANCH  52  54
BRANCH  49  56
ATOM     56  O   UNL     1     -15.405   2.577  15.443  0.00  0.00    +0.000 OA
ATOM     57  H   UNL     1     -14.828   2.801  15.473  0.00  0.00    +0.000 HD
ENDBRANCH  49  56
BRANCH  50  58
ATOM     58  O   UNL     1     -16.491   3.616  16.762  0.00  0.00    +0.000 OA
ATOM     59  H   UNL     1     -16.951   3.536  17.170  0.00  0.00    +0.000 HD
ENDBRANCH  50  58
ENDBRANCH  46  48
ENDBRANCH  45  46
ENDBRANCH  39  45
BRANCH  37  60
ATOM     60  O   UNL     1     -13.978   0.660   9.824  0.00  0.00    +0.000 OA
BRANCH  60  62
ATOM     61  O   UNL     1     -12.659   0.526  10.937  0.00  0.00    +0.000 OA
ATOM     62  C   UNL     1     -13.016   0.460  10.006  0.00  0.00    +0.000 C 
ATOM     63  C   UNL     1     -12.409   0.193   9.256  0.00  0.00    +0.000 C 
ATOM     64  C   UNL     1     -11.447  -0.007   9.439  0.00  0.00    +0.000 C 
ATOM     65  C   UNL     1     -11.697   0.325  11.120  0.00  0.00    +0.000 C 
ATOM     66  C   UNL     1     -11.090   0.059  10.371  0.00  0.00    +0.000 C 
BRANCH  66  67
ATOM     67  O   UNL     1     -10.127  -0.141  10.553  0.00  0.00    +0.000 OA
ATOM     68  H   UNL     1      -9.727   0.323  10.645  0.00  0.00    +0.000 HD
ENDBRANCH  66  67
BRANCH  63  69
ATOM     69  O   UNL     1     -12.766   0.128   8.324  0.00  0.00    +0.000 OA
ATOM     70  H   UNL     1     -12.422  -0.131   7.878  0.00  0.00    +0.000 HD
ENDBRANCH  63  69
BRANCH  64  71
ATOM     71  O   UNL     1     -10.841  -0.273   8.689  0.00  0.00    +0.000 OA
ATOM     72  H   UNL     1     -11.057  -0.625   8.226  0.00  0.00    +0.000 HD
ENDBRANCH  64  71
ENDBRANCH  60  62
ENDBRANCH  37  60
ENDBRANCH  34  36
ENDBRANCH  33  34
ENDBRANCH  14  33
BRANCH  17  73
ATOM     73  O   UNL     1     -17.771   1.797   2.205  0.00  0.00    +0.000 OA
BRANCH  73  75
ATOM     74  O   UNL     1     -19.340   1.269   2.712  0.00  0.00    +0.000 OA
ATOM     75  C   UNL     1     -18.715   1.552   1.985  0.00  0.00    +0.000 C 
ATOM     76  C   UNL     1     -19.034   1.591   1.038  0.00  0.00    +0.000 C 
ATOM     77  C   UNL     1     -19.978   1.347   0.818  0.00  0.00    +0.000 C 
ATOM     78  C   UNL     1     -20.284   1.024   2.492  0.00  0.00    +0.000 C 
ATOM     79  C   UNL     1     -20.603   1.063   1.545  0.00  0.00    +0.000 C 
BRANCH  77  80
ATOM     80  O   UNL     1     -20.297   1.385  -0.129  0.00  0.00    +0.000 OA
ATOM     81  H   UNL     1     -19.945   1.653  -0.564  0.00  0.00    +0.000 HD
ENDBRANCH  77  80
BRANCH  79  82
ATOM     82  O   UNL     1     -21.548   0.818   1.325  0.00  0.00    +0.000 OA
ATOM     83  H   UNL     1     -21.664   0.364   0.920  0.00  0.00    +0.000 HD
ENDBRANCH  79  82
BRANCH  78  84
ATOM     84  C   UNL     1     -20.910   0.740   3.219  0.00  0.00    +0.000 C 
BRANCH  84  85
ATOM     85  O   UNL     1     -20.698   0.955   4.173  0.00  0.00    +0.000 OA
BRANCH  85  87
ATOM     86  O   UNL     1     -22.328   1.484   4.421  0.00  0.00    +0.000 OA
ATOM     87  C   UNL     1     -21.420   1.278   4.785  0.00  0.00    +0.000 C 
ATOM     88  C   UNL     1     -21.233   1.396   5.760  0.00  0.00    +0.000 C 
ATOM     89  C   UNL     1     -21.954   1.719   6.372  0.00  0.00    +0.000 C 
ATOM     90  C   UNL     1     -23.050   1.807   5.033  0.00  0.00    +0.000 C 
ATOM     91  C   UNL     1     -22.863   1.925   6.008  0.00  0.00    +0.000 C 
BRANCH  88  92
ATOM     92  O   UNL     1     -20.324   1.190   6.123  0.00  0.00    +0.000 OA
ATOM     93  H   UNL     1     -19.913   0.884   5.775  0.00  0.00    +0.000 HD
ENDBRANCH  88  92
BRANCH  89  94
ATOM     94  O   UNL     1     -21.767   1.837   7.347  0.00  0.00    +0.000 OA
ATOM     95  H   UNL     1     -21.524   1.370   7.675  0.00  0.00    +0.000 HD
ENDBRANCH  89  94
BRANCH  91  96
ATOM     96  O   UNL     1     -23.585   2.248   6.620  0.00  0.00    +0.000 OA
ATOM     97  H   UNL     1     -24.007   2.654   6.415  0.00  0.00    +0.000 HD
ENDBRANCH  91  96
BRANCH  90  98
ATOM     98  C   UNL     1     -23.959   2.013   4.670  0.00  0.00    +0.000 C 
BRANCH  98  99
ATOM     99  O   UNL     1     -24.077   2.752   4.007  0.00  0.00    +0.000 OA
ATOM    100  H   UNL     1     -23.591   3.099   3.840  0.00  0.00    +0.000 HD
ENDBRANCH  98  99
ENDBRANCH  90  98
ENDBRANCH  85  87
ENDBRANCH  84  85
ENDBRANCH  78  84
BRANCH  76 101
ATOM    101  O   UNL     1     -18.408   1.875   0.311  0.00  0.00    +0.000 OA
BRANCH 101 103
ATOM    102  O   UNL     1     -19.012   3.497   0.382  0.00  0.00    +0.000 OA
ATOM    103  C   UNL     1     -18.319   2.843   0.079  0.00  0.00    +0.000 C 
ATOM    104  C   UNL     1     -17.535   3.158  -0.458  0.00  0.00    +0.000 C 
ATOM    105  C   UNL     1     -17.446   4.126  -0.690  0.00  0.00    +0.000 C 
ATOM    106  C   UNL     1     -18.922   4.465   0.149  0.00  0.00    +0.000 C 
ATOM    107  C   UNL     1     -18.139   4.780  -0.387  0.00  0.00    +0.000 C 
BRANCH 107 108
ATOM    108  O   UNL     1     -18.049   5.748  -0.620  0.00  0.00    +0.000 OA
ATOM    109  H   UNL     1     -17.928   5.917  -1.204  0.00  0.00    +0.000 HD
ENDBRANCH 107 108
BRANCH 104 110
ATOM    110  O   UNL     1     -16.842   2.505  -0.761  0.00  0.00    +0.000 OA
ATOM    111  H   UNL     1     -16.559   2.584  -1.307  0.00  0.00    +0.000 HD
ENDBRANCH 104 110
BRANCH 105 112
ATOM    112  O   UNL     1     -16.663   4.441  -1.227  0.00  0.00    +0.000 OA
ATOM    113  H   UNL     1     -16.753   4.717  -1.774  0.00  0.00    +0.000 HD
ENDBRANCH 105 112
ENDBRANCH 101 103
ENDBRANCH  76 101
ENDBRANCH  73  75
ENDBRANCH  17  73
BRANCH  25 114
ATOM    114  O   UNL     1     -15.434   5.406  11.669  0.00  0.00    +0.000 OA
BRANCH 114 116
ATOM    115  O   UNL     1     -14.028   6.289  11.175  0.00  0.00    +0.000 OA
ATOM    116  C   UNL     1     -14.516   5.749  11.862  0.00  0.00    +0.000 C 
BRANCH 116 117
ATOM    117  C   UNL     1     -14.083   5.554  12.742  0.00  0.00    +0.000 C 
ATOM    118  C   UNL     1     -14.382   6.038  13.565  0.00  0.00    +0.000 C 
ATOM    119  C   UNL     1     -13.351   4.875  12.799  0.00  0.00    +0.000 C 
BRANCH 119 120
ATOM    120  C   UNL     1     -12.918   4.679  13.678  0.00  0.00    +0.000 C 
BRANCH 120 121
ATOM    121  C   UNL     1     -12.467   3.799  13.830  0.00  0.00    +0.000 C 
BRANCH 121 122
ATOM    122  C   UNL     1     -11.571   3.765  14.273  0.00  0.00    +0.000 C 
ATOM    123  C   UNL     1     -11.879   4.439  14.945  0.00  0.00    +0.000 C 
BRANCH 122 124
ATOM    124  C   UNL     1     -11.264   3.091  13.601  0.00  0.00    +0.000 C 
ATOM    125  C   UNL     1     -10.987   3.387  12.687  0.00  0.00    +0.000 C 
ENDBRANCH 122 124
BRANCH 122 126
ATOM    126  O   UNL     1     -10.676   3.732  14.717  0.00  0.00    +0.000 OA
BRANCH 126 128
ATOM    127  O   UNL     1     -10.872   3.806  16.436  0.00  0.00    +0.000 OA
ATOM    128  C   UNL     1     -10.581   3.310  15.618  0.00  0.00    +0.000 C 
ATOM    129  C   UNL     1     -10.195   2.391  15.702  0.00  0.00    +0.000 C 
ATOM    130  C   UNL     1     -10.101   1.969  16.604  0.00  0.00    +0.000 C 
ATOM    131  C   UNL     1     -10.777   3.384  17.338  0.00  0.00    +0.000 C 
ATOM    132  C   UNL     1     -10.392   2.465  17.422  0.00  0.00    +0.000 C 
BRANCH 129 133
ATOM    133  O   UNL     1      -9.904   1.893  14.885  0.00  0.00    +0.000 OA
ATOM    134  H   UNL     1      -9.393   1.544  14.900  0.00  0.00    +0.000 HD
ENDBRANCH 129 133
BRANCH 130 135
ATOM    135  O   UNL     1      -9.715   1.050  16.688  0.00  0.00    +0.000 OA
ATOM    136  H   UNL     1      -9.106   0.961  16.612  0.00  0.00    +0.000 HD
ENDBRANCH 130 135
BRANCH 132 137
ATOM    137  O   UNL     1     -10.297   2.043  18.324  0.00  0.00    +0.000 OA
ATOM    138  H   UNL     1     -10.798   1.953  18.677  0.00  0.00    +0.000 HD
ENDBRANCH 132 137
BRANCH 131 139
ATOM    139  C   UNL     1     -11.068   3.881  18.155  0.00  0.00    +0.000 C 
BRANCH 139 140
ATOM    140  O   UNL     1     -10.886   4.861  18.237  0.00  0.00    +0.000 OA
ATOM    141  H   UNL     1     -10.401   5.060  18.568  0.00  0.00    +0.000 HD
ENDBRANCH 139 140
ENDBRANCH 131 139
ENDBRANCH 126 128
ENDBRANCH 122 126
ENDBRANCH 121 122
ENDBRANCH 120 121
ENDBRANCH 119 120
ENDBRANCH 116 117
ENDBRANCH 114 116
ENDBRANCH  25 114
TORSDOF 48
ENDMDL
MODEL 2
REMARK VINA RESULT:    -3.129      3.448     12.098
REMARK INTER + INTRA:          45.282
REMARK INTER:                 -13.281
REMARK INTRA:                  58.563
REMARK UNBOUND:                55.179
REMARK  Name = IMPHY000332
REMARK  58 active torsions:
REMARK  status: ('A' for Active; 'I' for Inactive)
REMARK    1  A    between atoms: O_1  and  C_56
REMARK    2  A    between atoms: O_1  and  C_70
REMARK    3  A    between atoms: O_2  and  C_54
REMARK    4  A    between atoms: O_3  and  C_64
REMARK    5  A    between atoms: O_3  and  C_73
REMARK    6  A    between atoms: O_4  and  C_67
REMARK    7  A    between atoms: O_4  and  C_72
REMARK    8  A    between atoms: O_7  and  C_71
REMARK    9  A    between atoms: O_7  and  C_83
REMARK   10  A    between atoms: O_10  and  C_74
REMARK   11  A    between atoms: O_11  and  C_77
REMARK   12  A    between atoms: O_11  and  C_88
REMARK   13  A    between atoms: O_12  and  C_76
REMARK   14  A    between atoms: O_13  and  C_79
REMARK   15  A    between atoms: O_14  and  C_81
REMARK   16  A    between atoms: O_14  and  C_93
REMARK   17  A    between atoms: O_16  and  C_82
REMARK   18  A    between atoms: O_17  and  C_86
REMARK   19  A    between atoms: O_17  and  C_100
REMARK   20  A    between atoms: O_19  and  C_87
REMARK   21  A    between atoms: O_20  and  C_89
REMARK   22  A    between atoms: O_22  and  C_91
REMARK   23  A    between atoms: O_23  and  C_94
REMARK   24  A    between atoms: O_24  and  C_96
REMARK   25  A    between atoms: O_26  and  C_97
REMARK   26  A    between atoms: O_27  and  C_99
REMARK   27  A    between atoms: O_28  and  C_101
REMARK   28  A    between atoms: O_28  and  C_112
REMARK   29  A    between atoms: O_29  and  C_102
REMARK   30  A    between atoms: O_30  and  C_104
REMARK   31  A    between atoms: O_31  and  C_105
REMARK   32  A    between atoms: O_32  and  C_106
REMARK   33  A    between atoms: O_33  and  C_110
REMARK   34  A    between atoms: O_34  and  C_111
REMARK   35  A    between atoms: O_36  and  C_115
REMARK   36  A    between atoms: O_37  and  C_116
REMARK   37  A    between atoms: O_38  and  C_118
REMARK   38  A    between atoms: O_39  and  C_119
REMARK   39  A    between atoms: C_40  and  C_55
REMARK   40  A    between atoms: C_42  and  C_58
REMARK   41  A    between atoms: C_43  and  C_60
REMARK   42  A    between atoms: C_48  and  C_65
REMARK   43  A    between atoms: C_48  and  C_66
REMARK   44  A    between atoms: C_53  and  C_67
REMARK   45  A    between atoms: C_63  and  C_68
REMARK   46  A    between atoms: C_63  and  C_69
REMARK   47  A    between atoms: C_73  and  C_78
REMARK   48  A    between atoms: C_75  and  C_81
REMARK   49  A    between atoms: C_78  and  C_84
REMARK   50  A    between atoms: C_80  and  C_86
REMARK   51  A    between atoms: C_85  and  C_90
REMARK   52  A    between atoms: C_90  and  C_95
REMARK   53  A    between atoms: C_95  and  C_101
REMARK   54  A    between atoms: C_101  and  C_107
REMARK   55  A    between atoms: C_101  and  C_108
REMARK   56  A    between atoms: C_103  and  C_110
REMARK   57  A    between atoms: C_109  and  C_113
REMARK   58  A    between atoms: C_117  and  C_119
REMARK                            x       y       z     vdW  Elec       q    Type
REMARK                         _______ _______ _______ _____ _____    ______ ____
ROOT
ATOM      1  C   UNL     1     -16.871   4.674  13.046  0.00  0.00    +0.000 C 
ATOM      2  C   UNL     1     -17.587   5.359  13.175  0.00  0.00    +0.000 C 
ATOM      3  C   UNL     1     -18.009   5.522  14.112  0.00  0.00    +0.000 C 
ATOM      4  C   UNL     1     -16.475   4.529  12.139  0.00  0.00    +0.000 C 
ATOM      5  C   UNL     1     -17.680   4.963  14.928  0.00  0.00    +0.000 C 
ATOM      6  C   UNL     1     -16.526   4.104  13.847  0.00  0.00    +0.000 C 
ATOM      7  C   UNL     1     -16.796   5.069  11.361  0.00  0.00    +0.000 C 
ATOM      8  C   UNL     1     -16.934   4.249  14.794  0.00  0.00    +0.000 C 
ATOM      9  C   UNL     1     -18.104   5.115  15.915  0.00  0.00    +0.000 C 
ATOM     10  C   UNL     1     -16.393   4.929  10.410  0.00  0.00    +0.000 C 
ATOM     11  C   UNL     1     -17.908   5.900  12.396  0.00  0.00    +0.000 C 
ATOM     12  C   UNL     1     -15.729   3.811  12.020  0.00  0.00    +0.000 C 
ATOM     13  C   UNL     1     -18.786   6.271  14.228  0.00  0.00    +0.000 C 
ATOM     14  C   UNL     1     -15.646   4.217  10.268  0.00  0.00    +0.000 C 
ATOM     15  C   UNL     1     -15.312   3.654  11.079  0.00  0.00    +0.000 C 
ATOM     16  C   UNL     1     -16.212   3.952  13.257  0.00  0.00    +0.000 C 
ATOM     17  C   UNL     1     -18.882   5.859  16.055  0.00  0.00    +0.000 C 
ATOM     18  C   UNL     1     -17.512   5.754  11.489  0.00  0.00    +0.000 C 
ATOM     19  C   UNL     1     -18.325   6.058  13.330  0.00  0.00    +0.000 C 
ATOM     20  C   UNL     1     -19.225   6.441  15.206  0.00  0.00    +0.000 C 
ATOM     21  C   UNL     1     -15.954   3.857  12.666  0.00  0.00    +0.000 C 
ATOM     22  C   UNL     1     -16.757   5.527   9.582  0.00  0.00    +0.000 C 
ATOM     23  C   UNL     1     -15.211   4.053   9.288  0.00  0.00    +0.000 C 
ATOM     24  C   UNL     1     -16.337   5.381   8.592  0.00  0.00    +0.000 C 
ATOM     25  C   UNL     1     -15.559   4.639   8.444  0.00  0.00    +0.000 C 
ATOM     26  C   UNL     1     -17.504   4.407  16.287  0.00  0.00    +0.000 C 
ATOM     27  C   UNL     1     -18.145   4.885  16.887  0.00  0.00    +0.000 C 
ATOM     28  C   UNL     1     -16.303   5.617   7.621  0.00  0.00    +0.000 C 
ATOM     29  C   UNL     1     -16.941   6.090   8.227  0.00  0.00    +0.000 C 
ENDROOT
BRANCH  15  30
ATOM     30  O   UNL     1     -14.595   2.967  10.955  0.00  0.00    +0.000 OA
ATOM     31  H   UNL     1     -14.287   2.936  10.419  0.00  0.00    +0.000 HD
ENDBRANCH  15  30
BRANCH  14  33
ATOM     32  O   UNL     1     -14.212   2.849   9.997  0.00  0.00    +0.000 OA
ATOM     33  C   UNL     1     -14.929   3.533  10.132  0.00  0.00    +0.000 C 
BRANCH  33  34
ATOM     34  O   UNL     1     -15.047   2.607  10.491  0.00  0.00    +0.000 OA
BRANCH  34  36
ATOM     35  O   UNL     1     -15.824   2.134   9.017  0.00  0.00    +0.000 OA
ATOM     36  C   UNL     1     -15.509   1.912   9.940  0.00  0.00    +0.000 C 
ATOM     37  C   UNL     1     -15.656   0.995  10.311  0.00  0.00    +0.000 C 
ATOM     38  C   UNL     1     -16.117   0.301   9.759  0.00  0.00    +0.000 C 
ATOM     39  C   UNL     1     -16.286   1.440   8.465  0.00  0.00    +0.000 C 
ATOM     40  C   UNL     1     -16.432   0.523   8.837  0.00  0.00    +0.000 C 
BRANCH  38  41
ATOM     41  O   UNL     1     -16.264  -0.617  10.130  0.00  0.00    +0.000 OA
ATOM     42  H   UNL     1     -15.795  -0.921  10.398  0.00  0.00    +0.000 HD
ENDBRANCH  38  41
BRANCH  40  43
ATOM     43  O   UNL     1     -16.894  -0.172   8.286  0.00  0.00    +0.000 OA
ATOM     44  H   UNL     1     -17.023  -0.062   7.690  0.00  0.00    +0.000 HD
ENDBRANCH  40  43
BRANCH  39  45
ATOM     45  C   UNL     1     -16.600   1.662   7.544  0.00  0.00    +0.000 C 
BRANCH  45  46
ATOM     46  O   UNL     1     -17.264   2.397   7.406  0.00  0.00    +0.000 OA
BRANCH  46  48
ATOM     47  O   UNL     1     -18.801   1.631   7.175  0.00  0.00    +0.000 OA
ATOM     48  C   UNL     1     -18.078   2.239   6.847  0.00  0.00    +0.000 C 
ATOM     49  C   UNL     1     -18.168   2.688   5.958  0.00  0.00    +0.000 C 
ATOM     50  C   UNL     1     -18.982   2.530   5.398  0.00  0.00    +0.000 C 
ATOM     51  C   UNL     1     -19.614   1.474   6.615  0.00  0.00    +0.000 C 
ATOM     52  C   UNL     1     -19.705   1.923   5.727  0.00  0.00    +0.000 C 
ATOM     53  C   UNL     1     -20.337   0.866   6.945  0.00  0.00    +0.000 C 
BRANCH  52  54
ATOM     54  O   UNL     1     -20.518   1.765   5.167  0.00  0.00    +0.000 OA
ATOM     55  H   UNL     1     -20.642   1.195   4.955  0.00  0.00    +0.000 HD
ENDBRANCH  52  54
BRANCH  49  56
ATOM     56  O   UNL     1     -17.445   3.296   5.629  0.00  0.00    +0.000 OA
ATOM     57  H   UNL     1     -16.912   3.343   5.944  0.00  0.00    +0.000 HD
ENDBRANCH  49  56
BRANCH  50  58
ATOM     58  O   UNL     1     -19.072   2.979   4.509  0.00  0.00    +0.000 OA
ATOM     59  H   UNL     1     -18.914   2.677   3.992  0.00  0.00    +0.000 HD
ENDBRANCH  50  58
ENDBRANCH  46  48
ENDBRANCH  45  46
ENDBRANCH  39  45
BRANCH  37  60
ATOM     60  O   UNL     1     -15.341   0.772  11.234  0.00  0.00    +0.000 OA
BRANCH  60  62
ATOM     61  O   UNL     1     -15.462  -0.901  11.659  0.00  0.00    +0.000 OA
ATOM     62  C   UNL     1     -14.904  -0.108  11.414  0.00  0.00    +0.000 C 
ATOM     63  C   UNL     1     -13.910  -0.197  11.350  0.00  0.00    +0.000 C 
ATOM     64  C   UNL     1     -13.474  -1.078  11.532  0.00  0.00    +0.000 C 
ATOM     65  C   UNL     1     -15.025  -1.783  11.841  0.00  0.00    +0.000 C 
ATOM     66  C   UNL     1     -14.031  -1.871  11.777  0.00  0.00    +0.000 C 
BRANCH  66  67
ATOM     67  O   UNL     1     -13.595  -2.753  11.958  0.00  0.00    +0.000 OA
ATOM     68  H   UNL     1     -13.818  -3.269  11.696  0.00  0.00    +0.000 HD
ENDBRANCH  66  67
BRANCH  63  69
ATOM     69  O   UNL     1     -13.352   0.596  11.105  0.00  0.00    +0.000 OA
ATOM     70  H   UNL     1     -12.735   0.548  11.089  0.00  0.00    +0.000 HD
ENDBRANCH  63  69
BRANCH  64  71
ATOM     71  O   UNL     1     -12.479  -1.166  11.467  0.00  0.00    +0.000 OA
ATOM     72  H   UNL     1     -12.115  -0.694  11.639  0.00  0.00    +0.000 HD
ENDBRANCH  64  71
ENDBRANCH  60  62
ENDBRANCH  37  60
ENDBRANCH  34  36
ENDBRANCH  33  34
ENDBRANCH  14  33
BRANCH  17  73
ATOM     73  O   UNL     1     -19.280   6.007  16.960  0.00  0.00    +0.000 OA
BRANCH  73  75
ATOM     74  O   UNL     1     -18.927   7.666  17.310  0.00  0.00    +0.000 OA
ATOM     75  C   UNL     1     -19.588   6.920  17.228  0.00  0.00    +0.000 C 
ATOM     76  C   UNL     1     -20.556   7.087  17.414  0.00  0.00    +0.000 C 
ATOM     77  C   UNL     1     -20.863   8.000  17.682  0.00  0.00    +0.000 C 
ATOM     78  C   UNL     1     -19.234   8.579  17.578  0.00  0.00    +0.000 C 
ATOM     79  C   UNL     1     -20.202   8.746  17.764  0.00  0.00    +0.000 C 
BRANCH  77  80
ATOM     80  O   UNL     1     -21.832   8.167  17.868  0.00  0.00    +0.000 OA
ATOM     81  H   UNL     1     -22.259   7.760  17.678  0.00  0.00    +0.000 HD
ENDBRANCH  77  80
BRANCH  79  82
ATOM     82  O   UNL     1     -20.510   9.659  18.031  0.00  0.00    +0.000 OA
ATOM     83  H   UNL     1     -21.098   9.750  18.205  0.00  0.00    +0.000 HD
ENDBRANCH  79  82
BRANCH  78  84
ATOM     84  C   UNL     1     -18.573   9.325  17.659  0.00  0.00    +0.000 C 
BRANCH  84  85
ATOM     85  O   UNL     1     -18.088   9.471  18.521  0.00  0.00    +0.000 OA
BRANCH  85  87
ATOM     86  O   UNL     1     -16.429   9.821  18.169  0.00  0.00    +0.000 OA
ATOM     87  C   UNL     1     -17.308  10.096  18.557  0.00  0.00    +0.000 C 
ATOM     88  C   UNL     1     -17.409  10.997  18.979  0.00  0.00    +0.000 C 
ATOM     89  C   UNL     1     -16.629  11.622  19.015  0.00  0.00    +0.000 C 
ATOM     90  C   UNL     1     -15.649  10.446  18.204  0.00  0.00    +0.000 C 
ATOM     91  C   UNL     1     -15.749  11.347  18.627  0.00  0.00    +0.000 C 
BRANCH  88  92
ATOM     92  O   UNL     1     -18.288  11.272  19.367  0.00  0.00    +0.000 OA
ATOM     93  H   UNL     1     -18.709  11.555  19.010  0.00  0.00    +0.000 HD
ENDBRANCH  88  92
BRANCH  89  94
ATOM     94  O   UNL     1     -16.729  12.523  19.438  0.00  0.00    +0.000 OA
ATOM     95  H   UNL     1     -16.235  12.892  19.502  0.00  0.00    +0.000 HD
ENDBRANCH  89  94
BRANCH  91  96
ATOM     96  O   UNL     1     -14.970  11.972  18.663  0.00  0.00    +0.000 OA
ATOM     97  H   UNL     1     -14.423  11.799  18.426  0.00  0.00    +0.000 HD
ENDBRANCH  91  96
BRANCH  90  98
ATOM     98  C   UNL     1     -14.769  10.171  17.817  0.00  0.00    +0.000 C 
BRANCH  98  99
ATOM     99  O   UNL     1     -14.669   9.270  17.393  0.00  0.00    +0.000 OA
ATOM    100  H   UNL     1     -14.199   8.901  17.557  0.00  0.00    +0.000 HD
ENDBRANCH  98  99
ENDBRANCH  90  98
ENDBRANCH  85  87
ENDBRANCH  84  85
ENDBRANCH  78  84
BRANCH  76 101
ATOM    101  O   UNL     1     -21.217   6.341  17.332  0.00  0.00    +0.000 OA
BRANCH 101 103
ATOM    102  O   UNL     1     -21.119   6.024  19.032  0.00  0.00    +0.000 OA
ATOM    103  C   UNL     1     -21.394   5.742  18.113  0.00  0.00    +0.000 C 
ATOM    104  C   UNL     1     -21.846   4.861  17.975  0.00  0.00    +0.000 C 
ATOM    105  C   UNL     1     -22.022   4.261  18.756  0.00  0.00    +0.000 C 
ATOM    106  C   UNL     1     -21.295   5.425  19.813  0.00  0.00    +0.000 C 
ATOM    107  C   UNL     1     -21.747   4.544  19.675  0.00  0.00    +0.000 C 
BRANCH 107 108
ATOM    108  O   UNL     1     -21.924   3.944  20.456  0.00  0.00    +0.000 OA
ATOM    109  H   UNL     1     -22.015   4.188  21.019  0.00  0.00    +0.000 HD
ENDBRANCH 107 108
BRANCH 104 110
ATOM    110  O   UNL     1     -22.121   4.579  17.056  0.00  0.00    +0.000 OA
ATOM    111  H   UNL     1     -22.555   4.142  16.983  0.00  0.00    +0.000 HD
ENDBRANCH 104 110
BRANCH 105 112
ATOM    112  O   UNL     1     -22.474   3.380  18.618  0.00  0.00    +0.000 OA
ATOM    113  H   UNL     1     -22.398   3.073  18.084  0.00  0.00    +0.000 HD
ENDBRANCH 105 112
ENDBRANCH 101 103
ENDBRANCH  76 101
ENDBRANCH  73  75
ENDBRANCH  17  73
BRANCH  25 114
ATOM    114  O   UNL     1     -15.166   4.497   7.535  0.00  0.00    +0.000 OA
BRANCH 114 116
ATOM    115  O   UNL     1     -13.667   5.246   7.975  0.00  0.00    +0.000 OA
ATOM    116  C   UNL     1     -14.184   4.619   7.392  0.00  0.00    +0.000 C 
BRANCH 116 117
ATOM    117  C   UNL     1     -13.718   4.115   6.665  0.00  0.00    +0.000 C 
ATOM    118  C   UNL     1     -12.898   3.582   6.871  0.00  0.00    +0.000 C 
ATOM    119  C   UNL     1     -14.074   4.143   5.730  0.00  0.00    +0.000 C 
BRANCH 119 120
ATOM    120  C   UNL     1     -13.609   3.639   5.003  0.00  0.00    +0.000 C 
BRANCH 120 121
ATOM    121  C   UNL     1     -14.129   3.029   4.404  0.00  0.00    +0.000 C 
BRANCH 121 122
ATOM    122  C   UNL     1     -13.995   3.065   3.414  0.00  0.00    +0.000 C 
ATOM    123  C   UNL     1     -13.828   4.049   3.473  0.00  0.00    +0.000 C 
BRANCH 122 124
ATOM    124  C   UNL     1     -14.162   2.081   3.356  0.00  0.00    +0.000 C 
ATOM    125  C   UNL     1     -13.427   1.436   3.567  0.00  0.00    +0.000 C 
ENDBRANCH 122 124
BRANCH 122 126
ATOM    126  O   UNL     1     -13.861   3.102   2.424  0.00  0.00    +0.000 OA
BRANCH 126 128
ATOM    127  O   UNL     1     -15.538   3.479   2.211  0.00  0.00    +0.000 OA
ATOM    128  C   UNL     1     -14.639   3.278   1.821  0.00  0.00    +0.000 C 
ATOM    129  C   UNL     1     -14.518   3.254   0.829  0.00  0.00    +0.000 C 
ATOM    130  C   UNL     1     -15.297   3.431   0.226  0.00  0.00    +0.000 C 
ATOM    131  C   UNL     1     -16.316   3.655   1.608  0.00  0.00    +0.000 C 
ATOM    132  C   UNL     1     -16.196   3.631   0.616  0.00  0.00    +0.000 C 
BRANCH 129 133
ATOM    133  O   UNL     1     -13.620   3.053   0.438  0.00  0.00    +0.000 OA
ATOM    134  H   UNL     1     -13.443   3.326  -0.089  0.00  0.00    +0.000 HD
ENDBRANCH 129 133
BRANCH 130 135
ATOM    135  O   UNL     1     -15.177   3.406  -0.766  0.00  0.00    +0.000 OA
ATOM    136  H   UNL     1     -14.648   3.190  -1.009  0.00  0.00    +0.000 HD
ENDBRANCH 130 135
BRANCH 132 137
ATOM    137  O   UNL     1     -16.974   3.807   0.013  0.00  0.00    +0.000 OA
ATOM    138  H   UNL     1     -17.012   4.345  -0.294  0.00  0.00    +0.000 HD
ENDBRANCH 132 137
BRANCH 131 139
ATOM    139  C   UNL     1     -17.215   3.856   1.998  0.00  0.00    +0.000 C 
BRANCH 139 140
ATOM    140  O   UNL     1     -17.285   4.326   2.878  0.00  0.00    +0.000 OA
ATOM    141  H   UNL     1     -17.171   4.934   2.915  0.00  0.00    +0.000 HD
ENDBRANCH 139 140
ENDBRANCH 131 139
ENDBRANCH 126 128
ENDBRANCH 122 126
ENDBRANCH 121 122
ENDBRANCH 120 121
ENDBRANCH 119 120
ENDBRANCH 116 117
ENDBRANCH 114 116
ENDBRANCH  25 114
TORSDOF 48
ENDMDL
MODEL 3
REMARK VINA RESULT:    -2.277      2.695     11.668
REMARK INTER + INTRA:          47.977
REMARK INTER:                 -12.427
REMARK INTRA:                  60.404
REMARK UNBOUND:                55.179
REMARK  Name = IMPHY000332
REMARK  58 active torsions:
REMARK  status: ('A' for Active; 'I' for Inactive)
REMARK    1  A    between atoms: O_1  and  C_56
REMARK    2  A    between atoms: O_1  and  C_70
REMARK    3  A    between atoms: O_2  and  C_54
REMARK    4  A    between atoms: O_3  and  C_64
REMARK    5  A    between atoms: O_3  and  C_73
REMARK    6  A    between atoms: O_4  and  C_67
REMARK    7  A    between atoms: O_4  and  C_72
REMARK    8  A    between atoms: O_7  and  C_71
REMARK    9  A    between atoms: O_7  and  C_83
REMARK   10  A    between atoms: O_10  and  C_74
REMARK   11  A    between atoms: O_11  and  C_77
REMARK   12  A    between atoms: O_11  and  C_88
REMARK   13  A    between atoms: O_12  and  C_76
REMARK   14  A    between atoms: O_13  and  C_79
REMARK   15  A    between atoms: O_14  and  C_81
REMARK   16  A    between atoms: O_14  and  C_93
REMARK   17  A    between atoms: O_16  and  C_82
REMARK   18  A    between atoms: O_17  and  C_86
REMARK   19  A    between atoms: O_17  and  C_100
REMARK   20  A    between atoms: O_19  and  C_87
REMARK   21  A    between atoms: O_20  and  C_89
REMARK   22  A    between atoms: O_22  and  C_91
REMARK   23  A    between atoms: O_23  and  C_94
REMARK   24  A    between atoms: O_24  and  C_96
REMARK   25  A    between atoms: O_26  and  C_97
REMARK   26  A    between atoms: O_27  and  C_99
REMARK   27  A    between atoms: O_28  and  C_101
REMARK   28  A    between atoms: O_28  and  C_112
REMARK   29  A    between atoms: O_29  and  C_102
REMARK   30  A    between atoms: O_30  and  C_104
REMARK   31  A    between atoms: O_31  and  C_105
REMARK   32  A    between atoms: O_32  and  C_106
REMARK   33  A    between atoms: O_33  and  C_110
REMARK   34  A    between atoms: O_34  and  C_111
REMARK   35  A    between atoms: O_36  and  C_115
REMARK   36  A    between atoms: O_37  and  C_116
REMARK   37  A    between atoms: O_38  and  C_118
REMARK   38  A    between atoms: O_39  and  C_119
REMARK   39  A    between atoms: C_40  and  C_55
REMARK   40  A    between atoms: C_42  and  C_58
REMARK   41  A    between atoms: C_43  and  C_60
REMARK   42  A    between atoms: C_48  and  C_65
REMARK   43  A    between atoms: C_48  and  C_66
REMARK   44  A    between atoms: C_53  and  C_67
REMARK   45  A    between atoms: C_63  and  C_68
REMARK   46  A    between atoms: C_63  and  C_69
REMARK   47  A    between atoms: C_73  and  C_78
REMARK   48  A    between atoms: C_75  and  C_81
REMARK   49  A    between atoms: C_78  and  C_84
REMARK   50  A    between atoms: C_80  and  C_86
REMARK   51  A    between atoms: C_85  and  C_90
REMARK   52  A    between atoms: C_90  and  C_95
REMARK   53  A    between atoms: C_95  and  C_101
REMARK   54  A    between atoms: C_101  and  C_107
REMARK   55  A    between atoms: C_101  and  C_108
REMARK   56  A    between atoms: C_103  and  C_110
REMARK   57  A    between atoms: C_109  and  C_113
REMARK   58  A    between atoms: C_117  and  C_119
REMARK                            x       y       z     vdW  Elec       q    Type
REMARK                         _______ _______ _______ _____ _____    ______ ____
ROOT
ATOM      1  C   UNL     1     -15.430   0.816   6.276  0.00  0.00    +0.000 C 
ATOM      2  C   UNL     1     -15.503   0.619   7.254  0.00  0.00    +0.000 C 
ATOM      3  C   UNL     1     -14.767   0.935   7.918  0.00  0.00    +0.000 C 
ATOM      4  C   UNL     1     -16.146   0.507   5.650  0.00  0.00    +0.000 C 
ATOM      5  C   UNL     1     -13.942   1.462   7.561  0.00  0.00    +0.000 C 
ATOM      6  C   UNL     1     -14.616   1.342   5.895  0.00  0.00    +0.000 C 
ATOM      7  C   UNL     1     -16.934   0.001   6.001  0.00  0.00    +0.000 C 
ATOM      8  C   UNL     1     -13.867   1.667   6.542  0.00  0.00    +0.000 C 
ATOM      9  C   UNL     1     -13.162   1.801   8.234  0.00  0.00    +0.000 C 
ATOM     10  C   UNL     1     -17.687  -0.328   5.360  0.00  0.00    +0.000 C 
ATOM     11  C   UNL     1     -16.292   0.113   7.605  0.00  0.00    +0.000 C 
ATOM     12  C   UNL     1     -16.056   0.719   4.633  0.00  0.00    +0.000 C 
ATOM     13  C   UNL     1     -14.867   0.710   8.975  0.00  0.00    +0.000 C 
ATOM     14  C   UNL     1     -17.618  -0.127   4.340  0.00  0.00    +0.000 C 
ATOM     15  C   UNL     1     -16.797   0.400   3.975  0.00  0.00    +0.000 C 
ATOM     16  C   UNL     1     -15.066   1.161   5.412  0.00  0.00    +0.000 C 
ATOM     17  C   UNL     1     -13.241   1.588   9.295  0.00  0.00    +0.000 C 
ATOM     18  C   UNL     1     -17.007  -0.196   6.978  0.00  0.00    +0.000 C 
ATOM     19  C   UNL     1     -15.557   0.429   8.262  0.00  0.00    +0.000 C 
ATOM     20  C   UNL     1     -14.099   1.039   9.668  0.00  0.00    +0.000 C 
ATOM     21  C   UNL     1     -15.532   0.960   5.003  0.00  0.00    +0.000 C 
ATOM     22  C   UNL     1     -18.532  -0.875   5.764  0.00  0.00    +0.000 C 
ATOM     23  C   UNL     1     -18.390  -0.459   3.653  0.00  0.00    +0.000 C 
ATOM     24  C   UNL     1     -19.316  -1.217   5.097  0.00  0.00    +0.000 C 
ATOM     25  C   UNL     1     -19.245  -1.008   4.034  0.00  0.00    +0.000 C 
ATOM     26  C   UNL     1     -12.668   2.206   7.464  0.00  0.00    +0.000 C 
ATOM     27  C   UNL     1     -12.294   2.272   8.390  0.00  0.00    +0.000 C 
ATOM     28  C   UNL     1     -20.185  -1.690   4.949  0.00  0.00    +0.000 C 
ATOM     29  C   UNL     1     -19.805  -1.619   5.871  0.00  0.00    +0.000 C 
ENDROOT
BRANCH  15  30
ATOM     30  O   UNL     1     -16.721   0.599   2.997  0.00  0.00    +0.000 OA
ATOM     31  H   UNL     1     -16.405   0.215   2.627  0.00  0.00    +0.000 HD
ENDBRANCH  15  30
BRANCH  14  33
ATOM     32  O   UNL     1     -17.486   0.259   2.382  0.00  0.00    +0.000 OA
ATOM     33  C   UNL     1     -17.552   0.066   3.360  0.00  0.00    +0.000 C 
BRANCH  33  34
ATOM     34  O   UNL     1     -17.704  -0.665   2.696  0.00  0.00    +0.000 OA
BRANCH  34  36
ATOM     35  O   UNL     1     -16.364  -1.673   3.132  0.00  0.00    +0.000 OA
ATOM     36  C   UNL     1     -16.949  -1.265   2.431  0.00  0.00    +0.000 C 
ATOM     37  C   UNL     1     -16.779  -1.456   1.464  0.00  0.00    +0.000 C 
ATOM     38  C   UNL     1     -16.023  -2.056   1.199  0.00  0.00    +0.000 C 
ATOM     39  C   UNL     1     -15.609  -2.272   2.866  0.00  0.00    +0.000 C 
ATOM     40  C   UNL     1     -15.439  -2.464   1.900  0.00  0.00    +0.000 C 
BRANCH  38  41
ATOM     41  O   UNL     1     -15.853  -2.247   0.232  0.00  0.00    +0.000 OA
ATOM     42  H   UNL     1     -15.843  -2.833   0.029  0.00  0.00    +0.000 HD
ENDBRANCH  38  41
BRANCH  40  43
ATOM     43  O   UNL     1     -14.684  -3.063   1.634  0.00  0.00    +0.000 OA
ATOM     44  H   UNL     1     -14.153  -2.821   1.427  0.00  0.00    +0.000 HD
ENDBRANCH  40  43
BRANCH  39  45
ATOM     45  C   UNL     1     -15.025  -2.680   3.567  0.00  0.00    +0.000 C 
BRANCH  45  46
ATOM     46  O   UNL     1     -14.163  -2.240   3.816  0.00  0.00    +0.000 OA
BRANCH  46  48
ATOM     47  O   UNL     1     -14.425  -2.660   5.476  0.00  0.00    +0.000 OA
ATOM     48  C   UNL     1     -13.869  -2.219   4.772  0.00  0.00    +0.000 C 
ATOM     49  C   UNL     1     -13.019  -1.756   5.024  0.00  0.00    +0.000 C 
ATOM     50  C   UNL     1     -12.725  -1.735   5.979  0.00  0.00    +0.000 C 
ATOM     51  C   UNL     1     -14.131  -2.638   6.432  0.00  0.00    +0.000 C 
ATOM     52  C   UNL     1     -13.281  -2.176   6.684  0.00  0.00    +0.000 C 
ATOM     53  C   UNL     1     -14.688  -3.080   7.136  0.00  0.00    +0.000 C 
BRANCH  52  54
ATOM     54  O   UNL     1     -12.987  -2.154   7.639  0.00  0.00    +0.000 OA
ATOM     55  H   UNL     1     -12.383  -2.123   7.776  0.00  0.00    +0.000 HD
ENDBRANCH  52  54
BRANCH  49  56
ATOM     56  O   UNL     1     -12.463  -1.315   4.319  0.00  0.00    +0.000 OA
ATOM     57  H   UNL     1     -12.709  -0.871   3.963  0.00  0.00    +0.000 HD
ENDBRANCH  49  56
BRANCH  50  58
ATOM     58  O   UNL     1     -11.875  -1.272   6.231  0.00  0.00    +0.000 OA
ATOM     59  H   UNL     1     -11.347  -1.595   6.273  0.00  0.00    +0.000 HD
ENDBRANCH  50  58
ENDBRANCH  46  48
ENDBRANCH  45  46
ENDBRANCH  39  45
BRANCH  37  60
ATOM     60  O   UNL     1     -17.363  -1.049   0.762  0.00  0.00    +0.000 OA
BRANCH  60  62
ATOM     61  O   UNL     1     -16.372  -0.678  -0.608  0.00  0.00    +0.000 OA
ATOM     62  C   UNL     1     -17.143  -1.171  -0.205  0.00  0.00    +0.000 C 
ATOM     63  C   UNL     1     -17.694  -1.785  -0.770  0.00  0.00    +0.000 C 
ATOM     64  C   UNL     1     -17.474  -1.907  -1.738  0.00  0.00    +0.000 C 
ATOM     65  C   UNL     1     -16.152  -0.800  -1.576  0.00  0.00    +0.000 C 
ATOM     66  C   UNL     1     -16.703  -1.415  -2.141  0.00  0.00    +0.000 C 
BRANCH  66  67
ATOM     67  O   UNL     1     -16.483  -1.537  -3.109  0.00  0.00    +0.000 OA
ATOM     68  H   UNL     1     -15.892  -1.531  -3.296  0.00  0.00    +0.000 HD
ENDBRANCH  66  67
BRANCH  63  69
ATOM     69  O   UNL     1     -18.465  -2.278  -0.367  0.00  0.00    +0.000 OA
ATOM     70  H   UNL     1     -18.467  -2.409   0.239  0.00  0.00    +0.000 HD
ENDBRANCH  63  69
BRANCH  64  71
ATOM     71  O   UNL     1     -18.025  -2.522  -2.302  0.00  0.00    +0.000 OA
ATOM     72  H   UNL     1     -17.991  -3.136  -2.216  0.00  0.00    +0.000 HD
ENDBRANCH  64  71
ENDBRANCH  60  62
ENDBRANCH  37  60
ENDBRANCH  34  36
ENDBRANCH  33  34
ENDBRANCH  14  33
BRANCH  17  73
ATOM     73  O   UNL     1     -12.528   1.896   9.925  0.00  0.00    +0.000 OA
BRANCH  73  75
ATOM     74  O   UNL     1     -13.541   3.128  10.599  0.00  0.00    +0.000 OA
ATOM     75  C   UNL     1     -12.758   2.511  10.678  0.00  0.00    +0.000 C 
ATOM     76  C   UNL     1     -12.205   2.510  11.512  0.00  0.00    +0.000 C 
ATOM     77  C   UNL     1     -12.435   3.125  12.265  0.00  0.00    +0.000 C 
ATOM     78  C   UNL     1     -13.770   3.744  11.353  0.00  0.00    +0.000 C 
ATOM     79  C   UNL     1     -13.218   3.742  12.186  0.00  0.00    +0.000 C 
BRANCH  77  80
ATOM     80  O   UNL     1     -11.882   3.124  13.099  0.00  0.00    +0.000 OA
ATOM     81  H   UNL     1     -11.338   2.827  13.109  0.00  0.00    +0.000 HD
ENDBRANCH  77  80
BRANCH  79  82
ATOM     82  O   UNL     1     -13.448   4.358  12.940  0.00  0.00    +0.000 OA
ATOM     83  H   UNL     1     -13.943   4.729  12.897  0.00  0.00    +0.000 HD
ENDBRANCH  79  82
BRANCH  78  84
ATOM     84  C   UNL     1     -14.553   4.361  11.273  0.00  0.00    +0.000 C 
BRANCH  84  85
ATOM     85  O   UNL     1     -15.482   3.992  11.265  0.00  0.00    +0.000 OA
BRANCH  85  87
ATOM     86  O   UNL     1     -15.975   4.431   9.664  0.00  0.00    +0.000 OA
ATOM     87  C   UNL     1     -16.167   4.373  10.644  0.00  0.00    +0.000 C 
ATOM     88  C   UNL     1     -17.042   4.696  11.002  0.00  0.00    +0.000 C 
ATOM     89  C   UNL     1     -17.727   5.078  10.380  0.00  0.00    +0.000 C 
ATOM     90  C   UNL     1     -16.660   4.812   9.042  0.00  0.00    +0.000 C 
ATOM     91  C   UNL     1     -17.535   5.135   9.400  0.00  0.00    +0.000 C 
BRANCH  88  92
ATOM     92  O   UNL     1     -17.234   4.639  11.981  0.00  0.00    +0.000 OA
ATOM     93  H   UNL     1     -16.888   4.274  12.344  0.00  0.00    +0.000 HD
ENDBRANCH  88  92
BRANCH  89  94
ATOM     94  O   UNL     1     -18.603   5.401  10.738  0.00  0.00    +0.000 OA
ATOM     95  H   UNL     1     -18.623   5.709  11.276  0.00  0.00    +0.000 HD
ENDBRANCH  89  94
BRANCH  91  96
ATOM     96  O   UNL     1     -18.220   5.517   8.779  0.00  0.00    +0.000 OA
ATOM     97  H   UNL     1     -18.170   6.104   8.586  0.00  0.00    +0.000 HD
ENDBRANCH  91  96
BRANCH  90  98
ATOM     98  C   UNL     1     -16.468   4.869   8.062  0.00  0.00    +0.000 C 
BRANCH  98  99
ATOM     99  O   UNL     1     -16.130   4.067   7.571  0.00  0.00    +0.000 OA
ATOM    100  H   UNL     1     -16.327   3.501   7.729  0.00  0.00    +0.000 HD
ENDBRANCH  98  99
ENDBRANCH  90  98
ENDBRANCH  85  87
ENDBRANCH  84  85
ENDBRANCH  78  84
BRANCH  76 101
ATOM    101  O   UNL     1     -11.422   1.893  11.591  0.00  0.00    +0.000 OA
BRANCH 101 103
ATOM    102  O   UNL     1     -12.260   0.754  12.592  0.00  0.00    +0.000 OA
ATOM    103  C   UNL     1     -11.555   0.955  11.912  0.00  0.00    +0.000 C 
ATOM    104  C   UNL     1     -10.984   0.217  11.552  0.00  0.00    +0.000 C 
ATOM    105  C   UNL     1     -11.117  -0.720  11.872  0.00  0.00    +0.000 C 
ATOM    106  C   UNL     1     -12.393  -0.184  12.912  0.00  0.00    +0.000 C 
ATOM    107  C   UNL     1     -11.822  -0.921  12.553  0.00  0.00    +0.000 C 
BRANCH 107 108
ATOM    108  O   UNL     1     -11.955  -1.859  12.873  0.00  0.00    +0.000 OA
ATOM    109  H   UNL     1     -12.485  -2.156  12.750  0.00  0.00    +0.000 HD
ENDBRANCH 107 108
BRANCH 104 110
ATOM    110  O   UNL     1     -10.279   0.418  10.871  0.00  0.00    +0.000 OA
ATOM    111  H   UNL     1      -9.809   0.797  11.014  0.00  0.00    +0.000 HD
ENDBRANCH 104 110
BRANCH 105 112
ATOM    112  O   UNL     1     -10.545  -1.458  11.512  0.00  0.00    +0.000 OA
ATOM    113  H   UNL     1     -10.212  -1.809  11.900  0.00  0.00    +0.000 HD
ENDBRANCH 105 112
ENDBRANCH 101 103
ENDBRANCH  76 101
ENDBRANCH  73  75
ENDBRANCH  17  73
BRANCH  25 114
ATOM    114  O   UNL     1     -19.962  -1.319   3.411  0.00  0.00    +0.000 OA
BRANCH 114 116
ATOM    115  O   UNL     1     -21.444  -0.525   3.829  0.00  0.00    +0.000 OA
ATOM    116  C   UNL     1     -20.714  -0.706   3.169  0.00  0.00    +0.000 C 
BRANCH 116 117
ATOM    117  C   UNL     1     -20.737  -0.273   2.268  0.00  0.00    +0.000 C 
ATOM    118  C   UNL     1     -20.854  -0.832   1.447  0.00  0.00    +0.000 C 
ATOM    119  C   UNL     1     -20.643   0.719   2.189  0.00  0.00    +0.000 C 
BRANCH 119 120
ATOM    120  C   UNL     1     -20.666   1.153   1.288  0.00  0.00    +0.000 C 
BRANCH 120 121
ATOM    121  C   UNL     1     -20.797   2.142   1.211  0.00  0.00    +0.000 C 
BRANCH 121 122
ATOM    122  C   UNL     1     -20.058   2.766   1.465  0.00  0.00    +0.000 C 
ATOM    123  C   UNL     1     -19.432   2.267   0.866  0.00  0.00    +0.000 C 
BRANCH 122 124
ATOM    124  C   UNL     1     -20.685   3.265   2.063  0.00  0.00    +0.000 C 
ATOM    125  C   UNL     1     -21.167   4.072   1.722  0.00  0.00    +0.000 C 
ENDBRANCH 122 124
BRANCH 122 126
ATOM    126  O   UNL     1     -19.319   3.390   1.718  0.00  0.00    +0.000 OA
BRANCH 126 128
ATOM    127  O   UNL     1     -18.943   3.954   0.124  0.00  0.00    +0.000 OA
ATOM    128  C   UNL     1     -18.644   3.668   1.034  0.00  0.00    +0.000 C 
ATOM    129  C   UNL     1     -17.670   3.659   1.261  0.00  0.00    +0.000 C 
ATOM    130  C   UNL     1     -16.996   3.938   0.576  0.00  0.00    +0.000 C 
ATOM    131  C   UNL     1     -18.269   4.232  -0.559  0.00  0.00    +0.000 C 
ATOM    132  C   UNL     1     -17.295   4.224  -0.334  0.00  0.00    +0.000 C 
BRANCH 129 133
ATOM    133  O   UNL     1     -17.370   3.373   2.171  0.00  0.00    +0.000 OA
ATOM    134  H   UNL     1     -16.795   3.503   2.363  0.00  0.00    +0.000 HD
ENDBRANCH 129 133
BRANCH 130 135
ATOM    135  O   UNL     1     -16.022   3.929   0.803  0.00  0.00    +0.000 OA
ATOM    136  H   UNL     1     -15.779   4.386   1.145  0.00  0.00    +0.000 HD
ENDBRANCH 130 135
BRANCH 132 137
ATOM    137  O   UNL     1     -16.620   4.502  -1.018  0.00  0.00    +0.000 OA
ATOM    138  H   UNL     1     -16.791   4.865  -1.490  0.00  0.00    +0.000 HD
ENDBRANCH 132 137
BRANCH 131 139
ATOM    139  C   UNL     1     -18.569   4.519  -1.469  0.00  0.00    +0.000 C 
BRANCH 139 140
ATOM    140  O   UNL     1     -19.125   3.904  -2.030  0.00  0.00    +0.000 OA
ATOM    141  H   UNL     1     -18.898   3.680  -2.562  0.00  0.00    +0.000 HD
ENDBRANCH 139 140
ENDBRANCH 131 139
ENDBRANCH 126 128
ENDBRANCH 122 126
ENDBRANCH 121 122
ENDBRANCH 120 121
ENDBRANCH 119 120
ENDBRANCH 116 117
ENDBRANCH 114 116
ENDBRANCH  25 114
TORSDOF 48
ENDMDL
MODEL 4
REMARK VINA RESULT:    -2.244      4.112      8.802
REMARK INTER + INTRA:          48.080
REMARK INTER:                  -8.743
REMARK INTRA:                  56.822
REMARK UNBOUND:                55.179
REMARK  Name = IMPHY000332
REMARK  58 active torsions:
REMARK  status: ('A' for Active; 'I' for Inactive)
REMARK    1  A    between atoms: O_1  and  C_56
REMARK    2  A    between atoms: O_1  and  C_70
REMARK    3  A    between atoms: O_2  and  C_54
REMARK    4  A    between atoms: O_3  and  C_64
REMARK    5  A    between atoms: O_3  and  C_73
REMARK    6  A    between atoms: O_4  and  C_67
REMARK    7  A    between atoms: O_4  and  C_72
REMARK    8  A    between atoms: O_7  and  C_71
REMARK    9  A    between atoms: O_7  and  C_83
REMARK   10  A    between atoms: O_10  and  C_74
REMARK   11  A    between atoms: O_11  and  C_77
REMARK   12  A    between atoms: O_11  and  C_88
REMARK   13  A    between atoms: O_12  and  C_76
REMARK   14  A    between atoms: O_13  and  C_79
REMARK   15  A    between atoms: O_14  and  C_81
REMARK   16  A    between atoms: O_14  and  C_93
REMARK   17  A    between atoms: O_16  and  C_82
REMARK   18  A    between atoms: O_17  and  C_86
REMARK   19  A    between atoms: O_17  and  C_100
REMARK   20  A    between atoms: O_19  and  C_87
REMARK   21  A    between atoms: O_20  and  C_89
REMARK   22  A    between atoms: O_22  and  C_91
REMARK   23  A    between atoms: O_23  and  C_94
REMARK   24  A    between atoms: O_24  and  C_96
REMARK   25  A    between atoms: O_26  and  C_97
REMARK   26  A    between atoms: O_27  and  C_99
REMARK   27  A    between atoms: O_28  and  C_101
REMARK   28  A    between atoms: O_28  and  C_112
REMARK   29  A    between atoms: O_29  and  C_102
REMARK   30  A    between atoms: O_30  and  C_104
REMARK   31  A    between atoms: O_31  and  C_105
REMARK   32  A    between atoms: O_32  and  C_106
REMARK   33  A    between atoms: O_33  and  C_110
REMARK   34  A    between atoms: O_34  and  C_111
REMARK   35  A    between atoms: O_36  and  C_115
REMARK   36  A    between atoms: O_37  and  C_116
REMARK   37  A    between atoms: O_38  and  C_118
REMARK   38  A    between atoms: O_39  and  C_119
REMARK   39  A    between atoms: C_40  and  C_55
REMARK   40  A    between atoms: C_42  and  C_58
REMARK   41  A    between atoms: C_43  and  C_60
REMARK   42  A    between atoms: C_48  and  C_65
REMARK   43  A    between atoms: C_48  and  C_66
REMARK   44  A    between atoms: C_53  and  C_67
REMARK   45  A    between atoms: C_63  and  C_68
REMARK   46  A    between atoms: C_63  and  C_69
REMARK   47  A    between atoms: C_73  and  C_78
REMARK   48  A    between atoms: C_75  and  C_81
REMARK   49  A    between atoms: C_78  and  C_84
REMARK   50  A    between atoms: C_80  and  C_86
REMARK   51  A    between atoms: C_85  and  C_90
REMARK   52  A    between atoms: C_90  and  C_95
REMARK   53  A    between atoms: C_95  and  C_101
REMARK   54  A    between atoms: C_101  and  C_107
REMARK   55  A    between atoms: C_101  and  C_108
REMARK   56  A    between atoms: C_103  and  C_110
REMARK   57  A    between atoms: C_109  and  C_113
REMARK   58  A    between atoms: C_117  and  C_119
REMARK                            x       y       z     vdW  Elec       q    Type
REMARK                         _______ _______ _______ _____ _____    ______ ____
ROOT
ATOM      1  C   UNL     1     -17.017   4.734  13.460  0.00  0.00    +0.000 C 
ATOM      2  C   UNL     1     -16.393   4.241  12.855  0.00  0.00    +0.000 C 
ATOM      3  C   UNL     1     -16.742   3.774  11.992  0.00  0.00    +0.000 C 
ATOM      4  C   UNL     1     -16.667   5.178  14.285  0.00  0.00    +0.000 C 
ATOM      5  C   UNL     1     -17.756   3.821  11.757  0.00  0.00    +0.000 C 
ATOM      6  C   UNL     1     -18.034   4.794  13.245  0.00  0.00    +0.000 C 
ATOM      7  C   UNL     1     -15.693   5.129  14.505  0.00  0.00    +0.000 C 
ATOM      8  C   UNL     1     -18.406   4.335  12.388  0.00  0.00    +0.000 C 
ATOM      9  C   UNL     1     -18.144   3.342  10.864  0.00  0.00    +0.000 C 
ATOM     10  C   UNL     1     -15.313   5.586  15.361  0.00  0.00    +0.000 C 
ATOM     11  C   UNL     1     -15.418   4.192  13.074  0.00  0.00    +0.000 C 
ATOM     12  C   UNL     1     -17.329   5.688  14.906  0.00  0.00    +0.000 C 
ATOM     13  C   UNL     1     -16.046   3.244  11.350  0.00  0.00    +0.000 C 
ATOM     14  C   UNL     1     -15.957   6.102  15.996  0.00  0.00    +0.000 C 
ATOM     15  C   UNL     1     -16.973   6.153  15.767  0.00  0.00    +0.000 C 
ATOM     16  C   UNL     1     -17.865   5.120  13.823  0.00  0.00    +0.000 C 
ATOM     17  C   UNL     1     -17.466   2.806  10.207  0.00  0.00    +0.000 C 
ATOM     18  C   UNL     1     -15.068   4.635  13.899  0.00  0.00    +0.000 C 
ATOM     19  C   UNL     1     -15.769   3.728  12.218  0.00  0.00    +0.000 C 
ATOM     20  C   UNL     1     -16.410   2.757  10.451  0.00  0.00    +0.000 C 
ATOM     21  C   UNL     1     -17.637   5.409  14.361  0.00  0.00    +0.000 C 
ATOM     22  C   UNL     1     -14.252   5.518  15.577  0.00  0.00    +0.000 C 
ATOM     23  C   UNL     1     -15.586   6.586  16.893  0.00  0.00    +0.000 C 
ATOM     24  C   UNL     1     -13.858   5.995  16.469  0.00  0.00    +0.000 C 
ATOM     25  C   UNL     1     -14.529   6.533  17.131  0.00  0.00    +0.000 C 
ATOM     26  C   UNL     1     -19.065   3.657  11.090  0.00  0.00    +0.000 C 
ATOM     27  C   UNL     1     -18.910   3.116  10.263  0.00  0.00    +0.000 C 
ATOM     28  C   UNL     1     -13.086   6.217  17.064  0.00  0.00    +0.000 C 
ATOM     29  C   UNL     1     -12.939   5.677  16.236  0.00  0.00    +0.000 C 
ENDROOT
BRANCH  15  30
ATOM     30  O   UNL     1     -17.601   6.646  16.370  0.00  0.00    +0.000 OA
ATOM     31  H   UNL     1     -18.046   7.002  16.129  0.00  0.00    +0.000 HD
ENDBRANCH  15  30
BRANCH  14  33
ATOM     32  O   UNL     1     -17.196   7.091  17.216  0.00  0.00    +0.000 OA
ATOM     33  C   UNL     1     -16.577   6.597  16.606  0.00  0.00    +0.000 C 
BRANCH  33  34
ATOM     34  O   UNL     1     -17.442   6.180  16.885  0.00  0.00    +0.000 OA
BRANCH  34  36
ATOM     35  O   UNL     1     -16.635   5.065  17.936  0.00  0.00    +0.000 OA
ATOM     36  C   UNL     1     -17.465   5.548  17.659  0.00  0.00    +0.000 C 
ATOM     37  C   UNL     1     -18.320   5.397  18.157  0.00  0.00    +0.000 C 
ATOM     38  C   UNL     1     -18.343   4.765  18.931  0.00  0.00    +0.000 C 
ATOM     39  C   UNL     1     -16.658   4.432  18.710  0.00  0.00    +0.000 C 
ATOM     40  C   UNL     1     -17.512   4.282  19.207  0.00  0.00    +0.000 C 
BRANCH  38  41
ATOM     41  O   UNL     1     -19.198   4.615  19.428  0.00  0.00    +0.000 OA
ATOM     42  H   UNL     1     -19.247   4.793  20.020  0.00  0.00    +0.000 HD
ENDBRANCH  38  41
BRANCH  40  43
ATOM     43  O   UNL     1     -17.537   3.650  19.981  0.00  0.00    +0.000 OA
ATOM     44  H   UNL     1     -17.295   3.082  19.927  0.00  0.00    +0.000 HD
ENDBRANCH  40  43
BRANCH  39  45
ATOM     45  C   UNL     1     -15.828   3.950  18.986  0.00  0.00    +0.000 C 
BRANCH  45  46
ATOM     46  O   UNL     1     -15.156   4.405  19.571  0.00  0.00    +0.000 OA
BRANCH  46  48
ATOM     47  O   UNL     1     -13.931   3.312  19.019  0.00  0.00    +0.000 OA
ATOM     48  C   UNL     1     -14.208   4.088  19.586  0.00  0.00    +0.000 C 
ATOM     49  C   UNL     1     -13.537   4.547  20.168  0.00  0.00    +0.000 C 
ATOM     50  C   UNL     1     -12.589   4.229  20.183  0.00  0.00    +0.000 C 
ATOM     51  C   UNL     1     -12.983   2.995  19.035  0.00  0.00    +0.000 C 
ATOM     52  C   UNL     1     -12.312   3.453  19.617  0.00  0.00    +0.000 C 
ATOM     53  C   UNL     1     -12.706   2.219  18.468  0.00  0.00    +0.000 C 
BRANCH  52  54
ATOM     54  O   UNL     1     -11.363   3.137  19.632  0.00  0.00    +0.000 OA
ATOM     55  H   UNL     1     -11.230   2.567  19.840  0.00  0.00    +0.000 HD
ENDBRANCH  52  54
BRANCH  49  56
ATOM     56  O   UNL     1     -13.814   5.322  20.735  0.00  0.00    +0.000 OA
ATOM     57  H   UNL     1     -14.409   5.499  20.750  0.00  0.00    +0.000 HD
ENDBRANCH  49  56
BRANCH  50  58
ATOM     58  O   UNL     1     -11.917   4.688  20.766  0.00  0.00    +0.000 OA
ATOM     59  H   UNL     1     -11.735   5.265  20.632  0.00  0.00    +0.000 HD
ENDBRANCH  50  58
ENDBRANCH  46  48
ENDBRANCH  45  46
ENDBRANCH  39  45
BRANCH  37  60
ATOM     60  O   UNL     1     -19.151   5.880  17.881  0.00  0.00    +0.000 OA
BRANCH  60  62
ATOM     61  O   UNL     1     -18.941   7.066  19.124  0.00  0.00    +0.000 OA
ATOM     62  C   UNL     1     -19.528   6.600  18.462  0.00  0.00    +0.000 C 
ATOM     63  C   UNL     1     -20.492   6.855  18.382  0.00  0.00    +0.000 C 
ATOM     64  C   UNL     1     -20.869   7.576  18.963  0.00  0.00    +0.000 C 
ATOM     65  C   UNL     1     -19.318   7.787  19.706  0.00  0.00    +0.000 C 
ATOM     66  C   UNL     1     -20.282   8.042  19.625  0.00  0.00    +0.000 C 
BRANCH  66  67
ATOM     67  O   UNL     1     -20.659   8.763  20.207  0.00  0.00    +0.000 OA
ATOM     68  H   UNL     1     -20.317   9.002  20.666  0.00  0.00    +0.000 HD
ENDBRANCH  66  67
BRANCH  63  69
ATOM     69  O   UNL     1     -21.079   6.389  17.720  0.00  0.00    +0.000 OA
ATOM     70  H   UNL     1     -20.866   6.264  17.151  0.00  0.00    +0.000 HD
ENDBRANCH  63  69
BRANCH  64  71
ATOM     71  O   UNL     1     -21.833   7.831  18.883  0.00  0.00    +0.000 OA
ATOM     72  H   UNL     1     -22.107   7.831  18.326  0.00  0.00    +0.000 HD
ENDBRANCH  64  71
ENDBRANCH  60  62
ENDBRANCH  37  60
ENDBRANCH  34  36
ENDBRANCH  33  34
ENDBRANCH  14  33
BRANCH  17  73
ATOM     73  O   UNL     1     -17.812   2.361   9.381  0.00  0.00    +0.000 OA
BRANCH  73  75
ATOM     74  O   UNL     1     -16.463   2.345   8.295  0.00  0.00    +0.000 OA
ATOM     75  C   UNL     1     -17.187   1.859   8.784  0.00  0.00    +0.000 C 
ATOM     76  C   UNL     1     -17.285   0.869   8.676  0.00  0.00    +0.000 C 
ATOM     77  C   UNL     1     -16.660   0.367   8.079  0.00  0.00    +0.000 C 
ATOM     78  C   UNL     1     -15.837   1.843   7.698  0.00  0.00    +0.000 C 
ATOM     79  C   UNL     1     -15.936   0.853   7.590  0.00  0.00    +0.000 C 
BRANCH  77  80
ATOM     80  O   UNL     1     -16.759  -0.622   7.971  0.00  0.00    +0.000 OA
ATOM     81  H   UNL     1     -16.774  -0.872   7.404  0.00  0.00    +0.000 HD
ENDBRANCH  77  80
BRANCH  79  82
ATOM     82  O   UNL     1     -15.311   0.351   6.993  0.00  0.00    +0.000 OA
ATOM     83  H   UNL     1     -15.265  -0.266   7.041  0.00  0.00    +0.000 HD
ENDBRANCH  79  82
BRANCH  78  84
ATOM     84  C   UNL     1     -15.113   2.329   7.209  0.00  0.00    +0.000 C 
BRANCH  84  85
ATOM     85  O   UNL     1     -15.278   3.252   6.861  0.00  0.00    +0.000 OA
BRANCH  85  87
ATOM     86  O   UNL     1     -14.793   2.948   5.227  0.00  0.00    +0.000 OA
ATOM     87  C   UNL     1     -14.832   3.556   6.019  0.00  0.00    +0.000 C 
ATOM     88  C   UNL     1     -14.426   4.469   5.970  0.00  0.00    +0.000 C 
ATOM     89  C   UNL     1     -13.980   4.772   5.128  0.00  0.00    +0.000 C 
ATOM     90  C   UNL     1     -14.347   3.252   4.385  0.00  0.00    +0.000 C 
ATOM     91  C   UNL     1     -13.941   4.164   4.336  0.00  0.00    +0.000 C 
BRANCH  88  92
ATOM     92  O   UNL     1     -14.465   5.077   6.763  0.00  0.00    +0.000 OA
ATOM     93  H   UNL     1     -14.311   5.674   6.703  0.00  0.00    +0.000 HD
ENDBRANCH  88  92
BRANCH  89  94
ATOM     94  O   UNL     1     -13.574   5.685   5.079  0.00  0.00    +0.000 OA
ATOM     95  H   UNL     1     -13.225   5.894   5.547  0.00  0.00    +0.000 HD
ENDBRANCH  89  94
BRANCH  91  96
ATOM     96  O   UNL     1     -13.495   4.468   3.494  0.00  0.00    +0.000 OA
ATOM     97  H   UNL     1     -13.001   4.842   3.522  0.00  0.00    +0.000 HD
ENDBRANCH  91  96
BRANCH  90  98
ATOM     98  C   UNL     1     -14.308   2.643   3.592  0.00  0.00    +0.000 C 
BRANCH  98  99
ATOM     99  O   UNL     1     -14.877   1.821   3.564  0.00  0.00    +0.000 OA
ATOM    100  H   UNL     1     -14.643   1.289   3.348  0.00  0.00    +0.000 HD
ENDBRANCH  98  99
ENDBRANCH  90  98
ENDBRANCH  85  87
ENDBRANCH  84  85
ENDBRANCH  78  84
BRANCH  76 101
ATOM    101  O   UNL     1     -18.009   0.383   9.165  0.00  0.00    +0.000 OA
BRANCH 101 103
ATOM    102  O   UNL     1     -19.129   0.626   7.865  0.00  0.00    +0.000 OA
ATOM    103  C   UNL     1     -18.852   0.130   8.689  0.00  0.00    +0.000 C 
ATOM    104  C   UNL     1     -19.417  -0.618   9.036  0.00  0.00    +0.000 C 
ATOM    105  C   UNL     1     -20.260  -0.870   8.560  0.00  0.00    +0.000 C 
ATOM    106  C   UNL     1     -19.971   0.373   7.389  0.00  0.00    +0.000 C 
ATOM    107  C   UNL     1     -20.536  -0.375   7.737  0.00  0.00    +0.000 C 
BRANCH 107 108
ATOM    108  O   UNL     1     -21.379  -0.627   7.261  0.00  0.00    +0.000 OA
ATOM    109  H   UNL     1     -21.770  -1.034   7.518  0.00  0.00    +0.000 HD
ENDBRANCH 107 108
BRANCH 104 110
ATOM    110  O   UNL     1     -19.140  -1.113   9.859  0.00  0.00    +0.000 OA
ATOM    111  H   UNL     1     -19.476  -1.063  10.379  0.00  0.00    +0.000 HD
ENDBRANCH 104 110
BRANCH 105 112
ATOM    112  O   UNL     1     -20.825  -1.618   8.907  0.00  0.00    +0.000 OA
ATOM    113  H   UNL     1     -20.565  -2.161   9.056  0.00  0.00    +0.000 HD
ENDBRANCH 105 112
ENDBRANCH 101 103
ENDBRANCH  76 101
ENDBRANCH  73  75
ENDBRANCH  17  73
BRANCH  25 114
ATOM    114  O   UNL     1     -14.175   6.975  17.955  0.00  0.00    +0.000 OA
BRANCH 114 116
ATOM    115  O   UNL     1     -15.489   7.754  18.772  0.00  0.00    +0.000 OA
ATOM    116  C   UNL     1     -14.609   7.807  18.301  0.00  0.00    +0.000 C 
BRANCH 116 117
ATOM    117  C   UNL     1     -14.163   8.693  18.175  0.00  0.00    +0.000 C 
ATOM    118  C   UNL     1     -14.676   9.462  17.794  0.00  0.00    +0.000 C 
ATOM    119  C   UNL     1     -13.203   8.809  18.430  0.00  0.00    +0.000 C 
BRANCH 119 120
ATOM    120  C   UNL     1     -12.756   9.695  18.305  0.00  0.00    +0.000 C 
BRANCH 120 121
ATOM    121  C   UNL     1     -11.775   9.738  18.113  0.00  0.00    +0.000 C 
BRANCH 121 122
ATOM    122  C   UNL     1     -11.235  10.515  18.438  0.00  0.00    +0.000 C 
ATOM    123  C   UNL     1     -12.059  10.921  18.833  0.00  0.00    +0.000 C 
BRANCH 122 124
ATOM    124  C   UNL     1     -10.412  10.108  18.042  0.00  0.00    +0.000 C 
ATOM    125  C   UNL     1     -10.242  10.179  17.059  0.00  0.00    +0.000 C 
ENDBRANCH 122 124
BRANCH 122 126
ATOM    126  O   UNL     1     -10.697  11.292  18.763  0.00  0.00    +0.000 OA
BRANCH 126 128
ATOM    127  O   UNL     1     -10.302  10.454  20.227  0.00  0.00    +0.000 OA
ATOM    128  C   UNL     1     -10.355  11.304  19.703  0.00  0.00    +0.000 C 
ATOM    129  C   UNL     1     -10.066  12.167  20.119  0.00  0.00    +0.000 C 
ATOM    130  C   UNL     1      -9.724  12.178  21.059  0.00  0.00    +0.000 C 
ATOM    131  C   UNL     1      -9.960  10.466  21.166  0.00  0.00    +0.000 C 
ATOM    132  C   UNL     1      -9.671  11.328  21.583  0.00  0.00    +0.000 C 
BRANCH 129 133
ATOM    133  O   UNL     1     -10.118  13.017  19.596  0.00  0.00    +0.000 OA
ATOM    134  H   UNL     1     -10.604  13.125  19.227  0.00  0.00    +0.000 HD
ENDBRANCH 129 133
BRANCH 130 135
ATOM    135  O   UNL     1      -9.435  13.040  21.475  0.00  0.00    +0.000 OA
ATOM    136  H   UNL     1      -9.749  13.273  21.957  0.00  0.00    +0.000 HD
ENDBRANCH 130 135
BRANCH 132 137
ATOM    137  O   UNL     1      -9.329  11.340  22.522  0.00  0.00    +0.000 OA
ATOM    138  H   UNL     1      -8.762  11.558  22.642  0.00  0.00    +0.000 HD
ENDBRANCH 132 137
BRANCH 131 139
ATOM    139  C   UNL     1      -9.908   9.615  21.689  0.00  0.00    +0.000 C 
BRANCH 139 140
ATOM    140  O   UNL     1      -9.349   8.856  21.356  0.00  0.00    +0.000 OA
ATOM    141  H   UNL     1      -9.456   8.617  20.794  0.00  0.00    +0.000 HD
ENDBRANCH 139 140
ENDBRANCH 131 139
ENDBRANCH 126 128
ENDBRANCH 122 126
ENDBRANCH 121 122
ENDBRANCH 120 121
ENDBRANCH 119 120
ENDBRANCH 116 117
ENDBRANCH 114 116
ENDBRANCH  25 114
TORSDOF 48
ENDMDL
