MODEL 1
REMARK VINA RESULT:    -4.166      0.000      0.000
REMARK INTER + INTRA:         -13.389
REMARK INTER:                 -14.880
REMARK INTRA:                   1.491
REMARK UNBOUND:                 1.491
REMARK  Name = IMPHY000031
REMARK  47 active torsions:
REMARK  status: ('A' for Active; 'I' for Inactive)
REMARK    1  A    between atoms: O_1  and  C_43
REMARK    2  A    between atoms: O_1  and  C_44
REMARK    3  A    between atoms: O_2  and  C_45
REMARK    4  A    between atoms: O_2  and  C_47
REMARK    5  A    between atoms: O_3  and  C_46
REMARK    6  A    between atoms: O_3  and  C_48
REMARK    7  A    between atoms: C_7  and  C_8
REMARK    8  A    between atoms: C_7  and  C_13
REMARK    9  A    between atoms: C_8  and  C_14
REMARK   10  A    between atoms: C_9  and  C_11
REMARK   11  A    between atoms: C_9  and  C_15
REMARK   12  A    between atoms: C_10  and  C_12
REMARK   13  A    between atoms: C_10  and  C_16
REMARK   14  A    between atoms: C_11  and  C_17
REMARK   15  A    between atoms: C_12  and  C_18
REMARK   16  A    between atoms: C_13  and  C_19
REMARK   17  A    between atoms: C_14  and  C_20
REMARK   18  A    between atoms: C_15  and  C_21
REMARK   19  A    between atoms: C_16  and  C_22
REMARK   20  A    between atoms: C_17  and  C_23
REMARK   21  A    between atoms: C_18  and  C_24
REMARK   22  A    between atoms: C_19  and  C_25
REMARK   23  A    between atoms: C_20  and  C_26
REMARK   24  A    between atoms: C_21  and  C_27
REMARK   25  A    between atoms: C_22  and  C_28
REMARK   26  A    between atoms: C_23  and  C_29
REMARK   27  A    between atoms: C_24  and  C_30
REMARK   28  A    between atoms: C_25  and  C_31
REMARK   29  A    between atoms: C_26  and  C_32
REMARK   30  A    between atoms: C_27  and  C_33
REMARK   31  A    between atoms: C_28  and  C_34
REMARK   32  A    between atoms: C_29  and  C_35
REMARK   33  A    between atoms: C_30  and  C_36
REMARK   34  A    between atoms: C_31  and  C_37
REMARK   35  A    between atoms: C_32  and  C_40
REMARK   36  A    between atoms: C_33  and  C_38
REMARK   37  A    between atoms: C_34  and  C_39
REMARK   38  A    between atoms: C_35  and  C_41
REMARK   39  A    between atoms: C_36  and  C_42
REMARK   40  A    between atoms: C_37  and  C_44
REMARK   41  A    between atoms: C_38  and  C_47
REMARK   42  A    between atoms: C_39  and  C_48
REMARK   43  A    between atoms: C_40  and  C_49
REMARK   44  A    between atoms: C_41  and  C_50
REMARK   45  A    between atoms: C_42  and  C_51
REMARK   46  A    between atoms: C_43  and  C_45
REMARK   47  A    between atoms: C_43  and  C_46
REMARK                            x       y       z     vdW  Elec       q    Type
REMARK                         _______ _______ _______ _____ _____    ______ ____
ROOT
ATOM      1  C   UNL     1     -23.425  12.566  16.848  0.00  0.00    +0.000 C 
ENDROOT
BRANCH   1   2
ATOM      2  C   UNL     1     -22.641  13.186  16.835  0.00  0.00    +0.000 C 
BRANCH   2   3
ATOM      3  O   UNL     1     -21.763  12.891  17.213  0.00  0.00    +0.000 OA
BRANCH   3   5
ATOM      4  O   UNL     1     -20.979  14.415  17.459  0.00  0.00    +0.000 OA
ATOM      5  C   UNL     1     -20.957  13.475  17.120  0.00  0.00    +0.000 C 
BRANCH   5   6
ATOM      6  C   UNL     1     -20.128  13.119  16.688  0.00  0.00    +0.000 C 
BRANCH   6   7
ATOM      7  C   UNL     1     -19.294  13.000  17.227  0.00  0.00    +0.000 C 
BRANCH   7   8
ATOM      8  C   UNL     1     -18.456  12.678  16.788  0.00  0.00    +0.000 C 
BRANCH   8   9
ATOM      9  C   UNL     1     -17.567  12.884  17.196  0.00  0.00    +0.000 C 
BRANCH   9  10
ATOM     10  C   UNL     1     -16.745  12.423  16.862  0.00  0.00    +0.000 C 
BRANCH  10  11
ATOM     11  C   UNL     1     -15.843  12.715  17.180  0.00  0.00    +0.000 C 
BRANCH  11  12
ATOM     12  C   UNL     1     -15.163  12.034  17.451  0.00  0.00    +0.000 C 
BRANCH  12  13
ATOM     13  C   UNL     1     -14.229  12.318  17.666  0.00  0.00    +0.000 C 
BRANCH  13  14
ATOM     14  C   UNL     1     -13.578  11.656  18.039  0.00  0.00    +0.000 C 
BRANCH  14  15
ATOM     15  C   UNL     1     -12.613  11.703  17.780  0.00  0.00    +0.000 C 
BRANCH  15  16
ATOM     16  C   UNL     1     -11.935  11.166  18.281  0.00  0.00    +0.000 C 
BRANCH  16  17
ATOM     17  C   UNL     1     -10.963  11.261  18.064  0.00  0.00    +0.000 C 
ATOM     18  C   UNL     1     -10.540  12.167  18.049  0.00  0.00    +0.000 C 
ENDBRANCH  16  17
ENDBRANCH  15  16
ENDBRANCH  14  15
ENDBRANCH  13  14
ENDBRANCH  12  13
ENDBRANCH  11  12
ENDBRANCH  10  11
ENDBRANCH   9  10
ENDBRANCH   8   9
ENDBRANCH   7   8
ENDBRANCH   6   7
ENDBRANCH   5   6
ENDBRANCH   3   5
ENDBRANCH   2   3
ENDBRANCH   1   2
BRANCH   1  19
ATOM     19  C   UNL     1     -24.087  12.613  17.596  0.00  0.00    +0.000 C 
BRANCH  19  20
ATOM     20  O   UNL     1     -24.449  13.498  17.888  0.00  0.00    +0.000 OA
BRANCH  20  22
ATOM     21  O   UNL     1     -25.579  12.872  19.043  0.00  0.00    +0.000 OA
ATOM     22  C   UNL     1     -25.337  13.548  18.347  0.00  0.00    +0.000 C 
BRANCH  22  23
ATOM     23  C   UNL     1     -25.982  14.275  18.110  0.00  0.00    +0.000 C 
BRANCH  23  24
ATOM     24  C   UNL     1     -26.829  14.053  17.627  0.00  0.00    +0.000 C 
BRANCH  24  25
ATOM     25  C   UNL     1     -27.318  14.765  17.123  0.00  0.00    +0.000 C 
BRANCH  25  26
ATOM     26  C   UNL     1     -27.936  14.515  16.378  0.00  0.00    +0.000 C 
BRANCH  26  27
ATOM     27  C   UNL     1     -27.591  14.456  15.441  0.00  0.00    +0.000 C 
BRANCH  27  28
ATOM     28  C   UNL     1     -28.222  14.538  14.670  0.00  0.00    +0.000 C 
BRANCH  28  29
ATOM     29  C   UNL     1     -27.968  14.173  13.774  0.00  0.00    +0.000 C 
BRANCH  29  30
ATOM     30  C   UNL     1     -28.286  14.625  12.941  0.00  0.00    +0.000 C 
BRANCH  30  31
ATOM     31  C   UNL     1     -29.235  14.516  12.645  0.00  0.00    +0.000 C 
BRANCH  31  32
ATOM     32  C   UNL     1     -29.506  14.795  11.723  0.00  0.00    +0.000 C 
BRANCH  32  33
ATOM     33  C   UNL     1     -30.332  14.414  11.308  0.00  0.00    +0.000 C 
BRANCH  33  34
ATOM     34  C   UNL     1     -30.852  14.952  10.645  0.00  0.00    +0.000 C 
ATOM     35  C   UNL     1     -31.334  14.494   9.897  0.00  0.00    +0.000 C 
ENDBRANCH  33  34
ENDBRANCH  32  33
ENDBRANCH  31  32
ENDBRANCH  30  31
ENDBRANCH  29  30
ENDBRANCH  28  29
ENDBRANCH  27  28
ENDBRANCH  26  27
ENDBRANCH  25  26
ENDBRANCH  24  25
ENDBRANCH  23  24
ENDBRANCH  22  23
ENDBRANCH  20  22
ENDBRANCH  19  20
ENDBRANCH   1  19
BRANCH   1  36
ATOM     36  O   UNL     1     -23.546  11.899  16.113  0.00  0.00    +0.000 OA
BRANCH  36  38
ATOM     37  O   UNL     1     -23.889  12.937  14.770  0.00  0.00    +0.000 OA
ATOM     38  C   UNL     1     -24.106  12.128  15.317  0.00  0.00    +0.000 C 
BRANCH  38  39
ATOM     39  C   UNL     1     -24.882  11.549  15.067  0.00  0.00    +0.000 C 
BRANCH  39  40
ATOM     40  C   UNL     1     -25.337  11.676  14.186  0.00  0.00    +0.000 C 
BRANCH  40  41
ATOM     41  C   UNL     1     -26.122  11.107  13.942  0.00  0.00    +0.000 C 
BRANCH  41  42
ATOM     42  C   UNL     1     -26.229  10.776  13.003  0.00  0.00    +0.000 C 
BRANCH  42  43
ATOM     43  C   UNL     1     -27.027  11.046  12.465  0.00  0.00    +0.000 C 
BRANCH  43  44
ATOM     44  C   UNL     1     -26.907  11.409  11.541  0.00  0.00    +0.000 C 
BRANCH  44  45
ATOM     45  C   UNL     1     -27.706  11.574  10.962  0.00  0.00    +0.000 C 
BRANCH  45  46
ATOM     46  C   UNL     1     -27.583  11.842  10.006  0.00  0.00    +0.000 C 
BRANCH  46  47
ATOM     47  C   UNL     1     -27.298  12.773   9.780  0.00  0.00    +0.000 C 
BRANCH  47  48
ATOM     48  C   UNL     1     -27.675  13.230   8.975  0.00  0.00    +0.000 C 
BRANCH  48  49
ATOM     49  C   UNL     1     -27.454  14.189   8.795  0.00  0.00    +0.000 C 
BRANCH  49  50
ATOM     50  C   UNL     1     -27.643  14.585   7.896  0.00  0.00    +0.000 C 
ATOM     51  C   UNL     1     -28.408  15.219   7.781  0.00  0.00    +0.000 C 
ENDBRANCH  49  50
ENDBRANCH  48  49
ENDBRANCH  47  48
ENDBRANCH  46  47
ENDBRANCH  45  46
ENDBRANCH  44  45
ENDBRANCH  43  44
ENDBRANCH  42  43
ENDBRANCH  41  42
ENDBRANCH  40  41
ENDBRANCH  39  40
ENDBRANCH  38  39
ENDBRANCH  36  38
ENDBRANCH   1  36
TORSDOF 44
ENDMDL
MODEL 2
REMARK VINA RESULT:    -4.113      5.716     11.877
REMARK INTER + INTRA:         -13.202
REMARK INTER:                 -14.177
REMARK INTRA:                   0.976
REMARK UNBOUND:                 1.491
REMARK  Name = IMPHY000031
REMARK  47 active torsions:
REMARK  status: ('A' for Active; 'I' for Inactive)
REMARK    1  A    between atoms: O_1  and  C_43
REMARK    2  A    between atoms: O_1  and  C_44
REMARK    3  A    between atoms: O_2  and  C_45
REMARK    4  A    between atoms: O_2  and  C_47
REMARK    5  A    between atoms: O_3  and  C_46
REMARK    6  A    between atoms: O_3  and  C_48
REMARK    7  A    between atoms: C_7  and  C_8
REMARK    8  A    between atoms: C_7  and  C_13
REMARK    9  A    between atoms: C_8  and  C_14
REMARK   10  A    between atoms: C_9  and  C_11
REMARK   11  A    between atoms: C_9  and  C_15
REMARK   12  A    between atoms: C_10  and  C_12
REMARK   13  A    between atoms: C_10  and  C_16
REMARK   14  A    between atoms: C_11  and  C_17
REMARK   15  A    between atoms: C_12  and  C_18
REMARK   16  A    between atoms: C_13  and  C_19
REMARK   17  A    between atoms: C_14  and  C_20
REMARK   18  A    between atoms: C_15  and  C_21
REMARK   19  A    between atoms: C_16  and  C_22
REMARK   20  A    between atoms: C_17  and  C_23
REMARK   21  A    between atoms: C_18  and  C_24
REMARK   22  A    between atoms: C_19  and  C_25
REMARK   23  A    between atoms: C_20  and  C_26
REMARK   24  A    between atoms: C_21  and  C_27
REMARK   25  A    between atoms: C_22  and  C_28
REMARK   26  A    between atoms: C_23  and  C_29
REMARK   27  A    between atoms: C_24  and  C_30
REMARK   28  A    between atoms: C_25  and  C_31
REMARK   29  A    between atoms: C_26  and  C_32
REMARK   30  A    between atoms: C_27  and  C_33
REMARK   31  A    between atoms: C_28  and  C_34
REMARK   32  A    between atoms: C_29  and  C_35
REMARK   33  A    between atoms: C_30  and  C_36
REMARK   34  A    between atoms: C_31  and  C_37
REMARK   35  A    between atoms: C_32  and  C_40
REMARK   36  A    between atoms: C_33  and  C_38
REMARK   37  A    between atoms: C_34  and  C_39
REMARK   38  A    between atoms: C_35  and  C_41
REMARK   39  A    between atoms: C_36  and  C_42
REMARK   40  A    between atoms: C_37  and  C_44
REMARK   41  A    between atoms: C_38  and  C_47
REMARK   42  A    between atoms: C_39  and  C_48
REMARK   43  A    between atoms: C_40  and  C_49
REMARK   44  A    between atoms: C_41  and  C_50
REMARK   45  A    between atoms: C_42  and  C_51
REMARK   46  A    between atoms: C_43  and  C_45
REMARK   47  A    between atoms: C_43  and  C_46
REMARK                            x       y       z     vdW  Elec       q    Type
REMARK                         _______ _______ _______ _____ _____    ______ ____
ROOT
ATOM      1  C   UNL     1     -23.739   6.509  10.518  0.00  0.00    +0.000 C 
ENDROOT
BRANCH   1   2
ATOM      2  C   UNL     1     -23.572   7.376  10.987  0.00  0.00    +0.000 C 
BRANCH   2   3
ATOM      3  O   UNL     1     -23.914   7.515  11.917  0.00  0.00    +0.000 OA
BRANCH   3   5
ATOM      4  O   UNL     1     -23.262   8.552  13.140  0.00  0.00    +0.000 OA
ATOM      5  C   UNL     1     -23.851   8.417  12.343  0.00  0.00    +0.000 C 
BRANCH   5   6
ATOM      6  C   UNL     1     -24.375   9.183  11.973  0.00  0.00    +0.000 C 
BRANCH   6   7
ATOM      7  C   UNL     1     -25.162   9.541  12.477  0.00  0.00    +0.000 C 
BRANCH   7   8
ATOM      8  C   UNL     1     -25.828  10.125  12.014  0.00  0.00    +0.000 C 
BRANCH   8   9
ATOM      9  C   UNL     1     -26.323  10.825  12.530  0.00  0.00    +0.000 C 
BRANCH   9  10
ATOM     10  C   UNL     1     -26.774  11.576  12.047  0.00  0.00    +0.000 C 
BRANCH  10  11
ATOM     11  C   UNL     1     -27.394  12.186  12.541  0.00  0.00    +0.000 C 
BRANCH  11  12
ATOM     12  C   UNL     1     -27.559  13.112  12.202  0.00  0.00    +0.000 C 
BRANCH  12  13
ATOM     13  C   UNL     1     -28.487  13.483  12.190  0.00  0.00    +0.000 C 
BRANCH  13  14
ATOM     14  C   UNL     1     -28.631  14.472  12.172  0.00  0.00    +0.000 C 
BRANCH  14  15
ATOM     15  C   UNL     1     -29.559  14.842  12.137  0.00  0.00    +0.000 C 
BRANCH  15  16
ATOM     16  C   UNL     1     -29.761  15.632  11.557  0.00  0.00    +0.000 C 
BRANCH  16  17
ATOM     17  C   UNL     1     -30.675  16.038  11.566  0.00  0.00    +0.000 C 
ATOM     18  C   UNL     1     -31.087  16.360  10.714  0.00  0.00    +0.000 C 
ENDBRANCH  16  17
ENDBRANCH  15  16
ENDBRANCH  14  15
ENDBRANCH  13  14
ENDBRANCH  12  13
ENDBRANCH  11  12
ENDBRANCH  10  11
ENDBRANCH   9  10
ENDBRANCH   8   9
ENDBRANCH   7   8
ENDBRANCH   6   7
ENDBRANCH   5   6
ENDBRANCH   3   5
ENDBRANCH   2   3
ENDBRANCH   1   2
BRANCH   1  19
ATOM     19  C   UNL     1     -23.521   5.645  10.971  0.00  0.00    +0.000 C 
BRANCH  19  20
ATOM     20  O   UNL     1     -22.736   5.105  10.669  0.00  0.00    +0.000 OA
BRANCH  20  22
ATOM     21  O   UNL     1     -22.949   3.668  11.612  0.00  0.00    +0.000 OA
ATOM     22  C   UNL     1     -22.358   4.395  11.263  0.00  0.00    +0.000 C 
BRANCH  22  23
ATOM     23  C   UNL     1     -21.389   4.413  11.509  0.00  0.00    +0.000 C 
BRANCH  23  24
ATOM     24  C   UNL     1     -20.695   4.194  10.823  0.00  0.00    +0.000 C 
BRANCH  24  25
ATOM     25  C   UNL     1     -19.732   4.398  11.003  0.00  0.00    +0.000 C 
BRANCH  25  26
ATOM     26  C   UNL     1     -19.127   4.656  10.251  0.00  0.00    +0.000 C 
BRANCH  26  27
ATOM     27  C   UNL     1     -18.135   4.628  10.375  0.00  0.00    +0.000 C 
BRANCH  27  28
ATOM     28  C   UNL     1     -17.545   5.216   9.821  0.00  0.00    +0.000 C 
BRANCH  28  29
ATOM     29  C   UNL     1     -16.804   5.730  10.253  0.00  0.00    +0.000 C 
BRANCH  29  30
ATOM     30  C   UNL     1     -16.346   6.463   9.752  0.00  0.00    +0.000 C 
BRANCH  30  31
ATOM     31  C   UNL     1     -15.527   6.893  10.132  0.00  0.00    +0.000 C 
BRANCH  31  32
ATOM     32  C   UNL     1     -15.557   7.846  10.436  0.00  0.00    +0.000 C 
BRANCH  32  33
ATOM     33  C   UNL     1     -14.711   8.320  10.680  0.00  0.00    +0.000 C 
BRANCH  33  34
ATOM     34  C   UNL     1     -14.749   9.230  11.091  0.00  0.00    +0.000 C 
ATOM     35  C   UNL     1     -13.961   9.842  11.026  0.00  0.00    +0.000 C 
ENDBRANCH  33  34
ENDBRANCH  32  33
ENDBRANCH  31  32
ENDBRANCH  30  31
ENDBRANCH  29  30
ENDBRANCH  28  29
ENDBRANCH  27  28
ENDBRANCH  26  27
ENDBRANCH  25  26
ENDBRANCH  24  25
ENDBRANCH  23  24
ENDBRANCH  22  23
ENDBRANCH  20  22
ENDBRANCH  19  20
ENDBRANCH   1  19
BRANCH   1  36
ATOM     36  O   UNL     1     -24.122   6.506   9.594  0.00  0.00    +0.000 OA
BRANCH  36  38
ATOM     37  O   UNL     1     -25.785   6.179   9.952  0.00  0.00    +0.000 OA
ATOM     38  C   UNL     1     -25.093   6.703   9.455  0.00  0.00    +0.000 C 
BRANCH  38  39
ATOM     39  C   UNL     1     -25.371   7.424   8.821  0.00  0.00    +0.000 C 
BRANCH  39  40
ATOM     40  C   UNL     1     -26.284   7.827   8.890  0.00  0.00    +0.000 C 
BRANCH  40  41
ATOM     41  C   UNL     1     -26.412   8.805   8.730  0.00  0.00    +0.000 C 
BRANCH  41  42
ATOM     42  C   UNL     1     -27.325   9.165   8.532  0.00  0.00    +0.000 C 
BRANCH  42  43
ATOM     43  C   UNL     1     -27.611  10.044   8.914  0.00  0.00    +0.000 C 
BRANCH  43  44
ATOM     44  C   UNL     1     -27.403  10.892   8.426  0.00  0.00    +0.000 C 
BRANCH  44  45
ATOM     45  C   UNL     1     -27.899  11.731   8.649  0.00  0.00    +0.000 C 
BRANCH  45  46
ATOM     46  C   UNL     1     -27.521  12.619   8.389  0.00  0.00    +0.000 C 
BRANCH  46  47
ATOM     47  C   UNL     1     -28.043  13.455   8.561  0.00  0.00    +0.000 C 
BRANCH  47  48
ATOM     48  C   UNL     1     -27.587  14.344   8.531  0.00  0.00    +0.000 C 
BRANCH  48  49
ATOM     49  C   UNL     1     -28.130  15.182   8.459  0.00  0.00    +0.000 C 
BRANCH  49  50
ATOM     50  C   UNL     1     -27.674  16.063   8.334  0.00  0.00    +0.000 C 
ATOM     51  C   UNL     1     -27.301  16.549   9.124  0.00  0.00    +0.000 C 
ENDBRANCH  49  50
ENDBRANCH  48  49
ENDBRANCH  47  48
ENDBRANCH  46  47
ENDBRANCH  45  46
ENDBRANCH  44  45
ENDBRANCH  43  44
ENDBRANCH  42  43
ENDBRANCH  41  42
ENDBRANCH  40  41
ENDBRANCH  39  40
ENDBRANCH  38  39
ENDBRANCH  36  38
ENDBRANCH   1  36
TORSDOF 44
ENDMDL
MODEL 3
REMARK VINA RESULT:    -4.076      6.843     11.556
REMARK INTER + INTRA:         -13.069
REMARK INTER:                  -9.913
REMARK INTRA:                  -3.156
REMARK UNBOUND:                 1.491
REMARK  Name = IMPHY000031
REMARK  47 active torsions:
REMARK  status: ('A' for Active; 'I' for Inactive)
REMARK    1  A    between atoms: O_1  and  C_43
REMARK    2  A    between atoms: O_1  and  C_44
REMARK    3  A    between atoms: O_2  and  C_45
REMARK    4  A    between atoms: O_2  and  C_47
REMARK    5  A    between atoms: O_3  and  C_46
REMARK    6  A    between atoms: O_3  and  C_48
REMARK    7  A    between atoms: C_7  and  C_8
REMARK    8  A    between atoms: C_7  and  C_13
REMARK    9  A    between atoms: C_8  and  C_14
REMARK   10  A    between atoms: C_9  and  C_11
REMARK   11  A    between atoms: C_9  and  C_15
REMARK   12  A    between atoms: C_10  and  C_12
REMARK   13  A    between atoms: C_10  and  C_16
REMARK   14  A    between atoms: C_11  and  C_17
REMARK   15  A    between atoms: C_12  and  C_18
REMARK   16  A    between atoms: C_13  and  C_19
REMARK   17  A    between atoms: C_14  and  C_20
REMARK   18  A    between atoms: C_15  and  C_21
REMARK   19  A    between atoms: C_16  and  C_22
REMARK   20  A    between atoms: C_17  and  C_23
REMARK   21  A    between atoms: C_18  and  C_24
REMARK   22  A    between atoms: C_19  and  C_25
REMARK   23  A    between atoms: C_20  and  C_26
REMARK   24  A    between atoms: C_21  and  C_27
REMARK   25  A    between atoms: C_22  and  C_28
REMARK   26  A    between atoms: C_23  and  C_29
REMARK   27  A    between atoms: C_24  and  C_30
REMARK   28  A    between atoms: C_25  and  C_31
REMARK   29  A    between atoms: C_26  and  C_32
REMARK   30  A    between atoms: C_27  and  C_33
REMARK   31  A    between atoms: C_28  and  C_34
REMARK   32  A    between atoms: C_29  and  C_35
REMARK   33  A    between atoms: C_30  and  C_36
REMARK   34  A    between atoms: C_31  and  C_37
REMARK   35  A    between atoms: C_32  and  C_40
REMARK   36  A    between atoms: C_33  and  C_38
REMARK   37  A    between atoms: C_34  and  C_39
REMARK   38  A    between atoms: C_35  and  C_41
REMARK   39  A    between atoms: C_36  and  C_42
REMARK   40  A    between atoms: C_37  and  C_44
REMARK   41  A    between atoms: C_38  and  C_47
REMARK   42  A    between atoms: C_39  and  C_48
REMARK   43  A    between atoms: C_40  and  C_49
REMARK   44  A    between atoms: C_41  and  C_50
REMARK   45  A    between atoms: C_42  and  C_51
REMARK   46  A    between atoms: C_43  and  C_45
REMARK   47  A    between atoms: C_43  and  C_46
REMARK                            x       y       z     vdW  Elec       q    Type
REMARK                         _______ _______ _______ _____ _____    ______ ____
ROOT
ATOM      1  C   UNL     1     -30.504  11.128   8.160  0.00  0.00    +0.000 C 
ENDROOT
BRANCH   1   2
ATOM      2  C   UNL     1     -30.847  12.055   8.008  0.00  0.00    +0.000 C 
BRANCH   2   3
ATOM      3  O   UNL     1     -30.211  12.792   7.779  0.00  0.00    +0.000 OA
BRANCH   3   5
ATOM      4  O   UNL     1     -31.297  14.126   7.985  0.00  0.00    +0.000 OA
ATOM      5  C   UNL     1     -30.389  13.723   8.099  0.00  0.00    +0.000 C 
BRANCH   5   6
ATOM      6  C   UNL     1     -29.658  14.251   8.532  0.00  0.00    +0.000 C 
BRANCH   6   7
ATOM      7  C   UNL     1     -28.709  14.118   8.248  0.00  0.00    +0.000 C 
BRANCH   7   8
ATOM      8  C   UNL     1     -27.980  14.096   8.932  0.00  0.00    +0.000 C 
BRANCH   8   9
ATOM      9  C   UNL     1     -27.393  13.290   9.011  0.00  0.00    +0.000 C 
BRANCH   9  10
ATOM     10  C   UNL     1     -27.305  12.820   9.890  0.00  0.00    +0.000 C 
BRANCH  10  11
ATOM     11  C   UNL     1     -27.274  11.821   9.921  0.00  0.00    +0.000 C 
BRANCH  11  12
ATOM     12  C   UNL     1     -27.218  11.350  10.801  0.00  0.00    +0.000 C 
BRANCH  12  13
ATOM     13  C   UNL     1     -27.756  10.521  10.960  0.00  0.00    +0.000 C 
BRANCH  13  14
ATOM     14  C   UNL     1     -27.647  10.011  11.813  0.00  0.00    +0.000 C 
BRANCH  14  15
ATOM     15  C   UNL     1     -28.068   9.110  11.913  0.00  0.00    +0.000 C 
BRANCH  15  16
ATOM     16  C   UNL     1     -27.666   8.436  12.534  0.00  0.00    +0.000 C 
BRANCH  16  17
ATOM     17  C   UNL     1     -28.186   8.111  13.324  0.00  0.00    +0.000 C 
ATOM     18  C   UNL     1     -28.819   7.343  13.224  0.00  0.00    +0.000 C 
ENDBRANCH  16  17
ENDBRANCH  15  16
ENDBRANCH  14  15
ENDBRANCH  13  14
ENDBRANCH  12  13
ENDBRANCH  11  12
ENDBRANCH  10  11
ENDBRANCH   9  10
ENDBRANCH   8   9
ENDBRANCH   7   8
ENDBRANCH   6   7
ENDBRANCH   5   6
ENDBRANCH   3   5
ENDBRANCH   2   3
ENDBRANCH   1   2
BRANCH   1  19
ATOM     19  C   UNL     1     -30.122  10.605   7.398  0.00  0.00    +0.000 C 
BRANCH  19  20
ATOM     20  O   UNL     1     -29.142  10.646   7.205  0.00  0.00    +0.000 OA
BRANCH  20  22
ATOM     21  O   UNL     1     -29.223   9.390   6.015  0.00  0.00    +0.000 OA
ATOM     22  C   UNL     1     -28.702   9.908   6.693  0.00  0.00    +0.000 C 
BRANCH  22  23
ATOM     23  C   UNL     1     -27.740   9.689   6.859  0.00  0.00    +0.000 C 
BRANCH  23  24
ATOM     24  C   UNL     1     -27.497   8.952   7.491  0.00  0.00    +0.000 C 
BRANCH  24  25
ATOM     25  C   UNL     1     -26.564   8.594   7.505  0.00  0.00    +0.000 C 
BRANCH  25  26
ATOM     26  C   UNL     1     -25.913   8.921   8.190  0.00  0.00    +0.000 C 
BRANCH  26  27
ATOM     27  C   UNL     1     -25.618   8.315   8.929  0.00  0.00    +0.000 C 
BRANCH  27  28
ATOM     28  C   UNL     1     -24.808   8.543   9.469  0.00  0.00    +0.000 C 
BRANCH  28  29
ATOM     29  C   UNL     1     -24.728   8.219  10.412  0.00  0.00    +0.000 C 
BRANCH  29  30
ATOM     30  C   UNL     1     -24.221   8.758  11.085  0.00  0.00    +0.000 C 
BRANCH  30  31
ATOM     31  C   UNL     1     -24.352   8.590  12.062  0.00  0.00    +0.000 C 
BRANCH  31  32
ATOM     32  C   UNL     1     -23.567   8.604  12.681  0.00  0.00    +0.000 C 
BRANCH  32  33
ATOM     33  C   UNL     1     -23.711   8.560  13.670  0.00  0.00    +0.000 C 
BRANCH  33  34
ATOM     34  C   UNL     1     -23.082   9.032  14.288  0.00  0.00    +0.000 C 
ATOM     35  C   UNL     1     -22.631   8.528  15.025  0.00  0.00    +0.000 C 
ENDBRANCH  33  34
ENDBRANCH  32  33
ENDBRANCH  31  32
ENDBRANCH  30  31
ENDBRANCH  29  30
ENDBRANCH  28  29
ENDBRANCH  27  28
ENDBRANCH  26  27
ENDBRANCH  25  26
ENDBRANCH  24  25
ENDBRANCH  23  24
ENDBRANCH  22  23
ENDBRANCH  20  22
ENDBRANCH  19  20
ENDBRANCH   1  19
BRANCH   1  36
ATOM     36  O   UNL     1     -30.543  10.724   9.074  0.00  0.00    +0.000 OA
BRANCH  36  38
ATOM     37  O   UNL     1     -32.094   9.970   9.230  0.00  0.00    +0.000 OA
ATOM     38  C   UNL     1     -31.096   9.907   9.237  0.00  0.00    +0.000 C 
BRANCH  38  39
ATOM     39  C   UNL     1     -30.651   9.028   9.406  0.00  0.00    +0.000 C 
BRANCH  39  40
ATOM     40  C   UNL     1     -31.183   8.259   9.761  0.00  0.00    +0.000 C 
BRANCH  40  41
ATOM     41  C   UNL     1     -30.781   7.344   9.789  0.00  0.00    +0.000 C 
BRANCH  41  42
ATOM     42  C   UNL     1     -29.802   7.221   9.618  0.00  0.00    +0.000 C 
BRANCH  42  43
ATOM     43  C   UNL     1     -29.390   6.313   9.699  0.00  0.00    +0.000 C 
BRANCH  43  44
ATOM     44  C   UNL     1     -28.396   6.211   9.666  0.00  0.00    +0.000 C 
BRANCH  44  45
ATOM     45  C   UNL     1     -27.961   5.419  10.093  0.00  0.00    +0.000 C 
BRANCH  45  46
ATOM     46  C   UNL     1     -27.030   5.493  10.451  0.00  0.00    +0.000 C 
BRANCH  46  47
ATOM     47  C   UNL     1     -26.796   5.071  11.327  0.00  0.00    +0.000 C 
BRANCH  47  48
ATOM     48  C   UNL     1     -25.852   4.798  11.515  0.00  0.00    +0.000 C 
BRANCH  48  49
ATOM     49  C   UNL     1     -25.371   5.177  12.305  0.00  0.00    +0.000 C 
BRANCH  49  50
ATOM     50  C   UNL     1     -24.500   4.781  12.597  0.00  0.00    +0.000 C 
ATOM     51  C   UNL     1     -23.676   4.925  12.048  0.00  0.00    +0.000 C 
ENDBRANCH  49  50
ENDBRANCH  48  49
ENDBRANCH  47  48
ENDBRANCH  46  47
ENDBRANCH  45  46
ENDBRANCH  44  45
ENDBRANCH  43  44
ENDBRANCH  42  43
ENDBRANCH  41  42
ENDBRANCH  40  41
ENDBRANCH  39  40
ENDBRANCH  38  39
ENDBRANCH  36  38
ENDBRANCH   1  36
TORSDOF 44
ENDMDL
MODEL 4
REMARK VINA RESULT:    -4.011      2.510      6.643
REMARK INTER + INTRA:         -12.836
REMARK INTER:                 -15.292
REMARK INTRA:                   2.456
REMARK UNBOUND:                 1.491
REMARK  Name = IMPHY000031
REMARK  47 active torsions:
REMARK  status: ('A' for Active; 'I' for Inactive)
REMARK    1  A    between atoms: O_1  and  C_43
REMARK    2  A    between atoms: O_1  and  C_44
REMARK    3  A    between atoms: O_2  and  C_45
REMARK    4  A    between atoms: O_2  and  C_47
REMARK    5  A    between atoms: O_3  and  C_46
REMARK    6  A    between atoms: O_3  and  C_48
REMARK    7  A    between atoms: C_7  and  C_8
REMARK    8  A    between atoms: C_7  and  C_13
REMARK    9  A    between atoms: C_8  and  C_14
REMARK   10  A    between atoms: C_9  and  C_11
REMARK   11  A    between atoms: C_9  and  C_15
REMARK   12  A    between atoms: C_10  and  C_12
REMARK   13  A    between atoms: C_10  and  C_16
REMARK   14  A    between atoms: C_11  and  C_17
REMARK   15  A    between atoms: C_12  and  C_18
REMARK   16  A    between atoms: C_13  and  C_19
REMARK   17  A    between atoms: C_14  and  C_20
REMARK   18  A    between atoms: C_15  and  C_21
REMARK   19  A    between atoms: C_16  and  C_22
REMARK   20  A    between atoms: C_17  and  C_23
REMARK   21  A    between atoms: C_18  and  C_24
REMARK   22  A    between atoms: C_19  and  C_25
REMARK   23  A    between atoms: C_20  and  C_26
REMARK   24  A    between atoms: C_21  and  C_27
REMARK   25  A    between atoms: C_22  and  C_28
REMARK   26  A    between atoms: C_23  and  C_29
REMARK   27  A    between atoms: C_24  and  C_30
REMARK   28  A    between atoms: C_25  and  C_31
REMARK   29  A    between atoms: C_26  and  C_32
REMARK   30  A    between atoms: C_27  and  C_33
REMARK   31  A    between atoms: C_28  and  C_34
REMARK   32  A    between atoms: C_29  and  C_35
REMARK   33  A    between atoms: C_30  and  C_36
REMARK   34  A    between atoms: C_31  and  C_37
REMARK   35  A    between atoms: C_32  and  C_40
REMARK   36  A    between atoms: C_33  and  C_38
REMARK   37  A    between atoms: C_34  and  C_39
REMARK   38  A    between atoms: C_35  and  C_41
REMARK   39  A    between atoms: C_36  and  C_42
REMARK   40  A    between atoms: C_37  and  C_44
REMARK   41  A    between atoms: C_38  and  C_47
REMARK   42  A    between atoms: C_39  and  C_48
REMARK   43  A    between atoms: C_40  and  C_49
REMARK   44  A    between atoms: C_41  and  C_50
REMARK   45  A    between atoms: C_42  and  C_51
REMARK   46  A    between atoms: C_43  and  C_45
REMARK   47  A    between atoms: C_43  and  C_46
REMARK                            x       y       z     vdW  Elec       q    Type
REMARK                         _______ _______ _______ _____ _____    ______ ____
ROOT
ATOM      1  C   UNL     1     -27.093  13.657  14.469  0.00  0.00    +0.000 C 
ENDROOT
BRANCH   1   2
ATOM      2  C   UNL     1     -26.508  12.849  14.401  0.00  0.00    +0.000 C 
BRANCH   2   3
ATOM      3  O   UNL     1     -25.526  12.928  14.569  0.00  0.00    +0.000 OA
BRANCH   3   5
ATOM      4  O   UNL     1     -25.012  11.288  14.349  0.00  0.00    +0.000 OA
ATOM      5  C   UNL     1     -25.007  12.133  14.884  0.00  0.00    +0.000 C 
BRANCH   5   6
ATOM      6  C   UNL     1     -24.483  12.183  15.734  0.00  0.00    +0.000 C 
BRANCH   6   7
ATOM      7  C   UNL     1     -23.520  12.454  15.713  0.00  0.00    +0.000 C 
BRANCH   7   8
ATOM      8  C   UNL     1     -23.102  12.875  16.518  0.00  0.00    +0.000 C 
BRANCH   8   9
ATOM      9  C   UNL     1     -22.251  13.393  16.426  0.00  0.00    +0.000 C 
BRANCH   9  10
ATOM     10  C   UNL     1     -21.861  13.859  17.220  0.00  0.00    +0.000 C 
BRANCH  10  11
ATOM     11  C   UNL     1     -20.879  14.043  17.259  0.00  0.00    +0.000 C 
BRANCH  11  12
ATOM     12  C   UNL     1     -20.253  13.344  17.605  0.00  0.00    +0.000 C 
BRANCH  12  13
ATOM     13  C   UNL     1     -19.274  13.411  17.414  0.00  0.00    +0.000 C 
BRANCH  13  14
ATOM     14  C   UNL     1     -18.610  13.081  18.085  0.00  0.00    +0.000 C 
BRANCH  14  15
ATOM     15  C   UNL     1     -17.636  13.070  17.861  0.00  0.00    +0.000 C 
BRANCH  15  16
ATOM     16  C   UNL     1     -17.031  13.779  18.223  0.00  0.00    +0.000 C 
BRANCH  16  17
ATOM     17  C   UNL     1     -16.042  13.708  18.092  0.00  0.00    +0.000 C 
ATOM     18  C   UNL     1     -15.514  14.514  17.823  0.00  0.00    +0.000 C 
ENDBRANCH  16  17
ENDBRANCH  15  16
ENDBRANCH  14  15
ENDBRANCH  13  14
ENDBRANCH  12  13
ENDBRANCH  11  12
ENDBRANCH  10  11
ENDBRANCH   9  10
ENDBRANCH   8   9
ENDBRANCH   7   8
ENDBRANCH   6   7
ENDBRANCH   5   6
ENDBRANCH   3   5
ENDBRANCH   2   3
ENDBRANCH   1   2
BRANCH   1  19
ATOM     19  C   UNL     1     -27.591  13.844  15.317  0.00  0.00    +0.000 C 
BRANCH  19  20
ATOM     20  O   UNL     1     -27.351  14.640  15.872  0.00  0.00    +0.000 OA
BRANCH  20  22
ATOM     21  O   UNL     1     -28.401  15.182  17.139  0.00  0.00    +0.000 OA
ATOM     22  C   UNL     1     -27.597  14.667  16.840  0.00  0.00    +0.000 C 
BRANCH  22  23
ATOM     23  C   UNL     1     -27.040  14.178  17.511  0.00  0.00    +0.000 C 
BRANCH  23  24
ATOM     24  C   UNL     1     -26.475  14.689  18.160  0.00  0.00    +0.000 C 
BRANCH  24  25
ATOM     25  C   UNL     1     -25.860  14.201  18.779  0.00  0.00    +0.000 C 
BRANCH  25  26
ATOM     26  C   UNL     1     -24.976  14.601  19.023  0.00  0.00    +0.000 C 
BRANCH  26  27
ATOM     27  C   UNL     1     -24.568  14.404  19.915  0.00  0.00    +0.000 C 
BRANCH  27  28
ATOM     28  C   UNL     1     -23.578  14.285  19.996  0.00  0.00    +0.000 C 
BRANCH  28  29
ATOM     29  C   UNL     1     -23.035  14.948  20.509  0.00  0.00    +0.000 C 
BRANCH  29  30
ATOM     30  C   UNL     1     -22.109  14.713  20.808  0.00  0.00    +0.000 C 
BRANCH  30  31
ATOM     31  C   UNL     1     -21.345  15.321  20.593  0.00  0.00    +0.000 C 
BRANCH  31  32
ATOM     32  C   UNL     1     -20.562  15.379  21.212  0.00  0.00    +0.000 C 
BRANCH  32  33
ATOM     33  C   UNL     1     -19.758  14.805  21.056  0.00  0.00    +0.000 C 
BRANCH  33  34
ATOM     34  C   UNL     1     -18.842  15.175  21.211  0.00  0.00    +0.000 C 
ATOM     35  C   UNL     1     -18.167  14.642  21.721  0.00  0.00    +0.000 C 
ENDBRANCH  33  34
ENDBRANCH  32  33
ENDBRANCH  31  32
ENDBRANCH  30  31
ENDBRANCH  29  30
ENDBRANCH  28  29
ENDBRANCH  27  28
ENDBRANCH  26  27
ENDBRANCH  25  26
ENDBRANCH  24  25
ENDBRANCH  23  24
ENDBRANCH  22  23
ENDBRANCH  20  22
ENDBRANCH  19  20
ENDBRANCH   1  19
BRANCH   1  36
ATOM     36  O   UNL     1     -27.182  14.278  13.691  0.00  0.00    +0.000 OA
BRANCH  36  38
ATOM     37  O   UNL     1     -28.511  13.350  13.081  0.00  0.00    +0.000 OA
ATOM     38  C   UNL     1     -27.831  14.072  12.958  0.00  0.00    +0.000 C 
BRANCH  38  39
ATOM     39  C   UNL     1     -27.800  14.589  12.103  0.00  0.00    +0.000 C 
BRANCH  39  40
ATOM     40  C   UNL     1     -28.322  14.276  11.310  0.00  0.00    +0.000 C 
BRANCH  40  41
ATOM     41  C   UNL     1     -28.065  14.577  10.391  0.00  0.00    +0.000 C 
BRANCH  41  42
ATOM     42  C   UNL     1     -27.478  14.001   9.821  0.00  0.00    +0.000 C 
BRANCH  42  43
ATOM     43  C   UNL     1     -27.874  13.471   9.071  0.00  0.00    +0.000 C 
BRANCH  43  44
ATOM     44  C   UNL     1     -27.304  12.831   8.556  0.00  0.00    +0.000 C 
BRANCH  44  45
ATOM     45  C   UNL     1     -27.689  11.965   8.236  0.00  0.00    +0.000 C 
BRANCH  45  46
ATOM     46  C   UNL     1     -27.383  11.103   8.638  0.00  0.00    +0.000 C 
BRANCH  46  47
ATOM     47  C   UNL     1     -26.879  10.442   8.082  0.00  0.00    +0.000 C 
BRANCH  47  48
ATOM     48  C   UNL     1     -26.776   9.498   8.396  0.00  0.00    +0.000 C 
BRANCH  48  49
ATOM     49  C   UNL     1     -25.943   8.988   8.184  0.00  0.00    +0.000 C 
BRANCH  49  50
ATOM     50  C   UNL     1     -25.733   8.145   8.678  0.00  0.00    +0.000 C 
ATOM     51  C   UNL     1     -26.039   7.264   8.317  0.00  0.00    +0.000 C 
ENDBRANCH  49  50
ENDBRANCH  48  49
ENDBRANCH  47  48
ENDBRANCH  46  47
ENDBRANCH  45  46
ENDBRANCH  44  45
ENDBRANCH  43  44
ENDBRANCH  42  43
ENDBRANCH  41  42
ENDBRANCH  40  41
ENDBRANCH  39  40
ENDBRANCH  38  39
ENDBRANCH  36  38
ENDBRANCH   1  36
TORSDOF 44
ENDMDL
MODEL 5
REMARK VINA RESULT:    -3.978      4.921     10.539
REMARK INTER + INTRA:         -12.720
REMARK INTER:                 -13.328
REMARK INTRA:                   0.607
REMARK UNBOUND:                 1.491
REMARK  Name = IMPHY000031
REMARK  47 active torsions:
REMARK  status: ('A' for Active; 'I' for Inactive)
REMARK    1  A    between atoms: O_1  and  C_43
REMARK    2  A    between atoms: O_1  and  C_44
REMARK    3  A    between atoms: O_2  and  C_45
REMARK    4  A    between atoms: O_2  and  C_47
REMARK    5  A    between atoms: O_3  and  C_46
REMARK    6  A    between atoms: O_3  and  C_48
REMARK    7  A    between atoms: C_7  and  C_8
REMARK    8  A    between atoms: C_7  and  C_13
REMARK    9  A    between atoms: C_8  and  C_14
REMARK   10  A    between atoms: C_9  and  C_11
REMARK   11  A    between atoms: C_9  and  C_15
REMARK   12  A    between atoms: C_10  and  C_12
REMARK   13  A    between atoms: C_10  and  C_16
REMARK   14  A    between atoms: C_11  and  C_17
REMARK   15  A    between atoms: C_12  and  C_18
REMARK   16  A    between atoms: C_13  and  C_19
REMARK   17  A    between atoms: C_14  and  C_20
REMARK   18  A    between atoms: C_15  and  C_21
REMARK   19  A    between atoms: C_16  and  C_22
REMARK   20  A    between atoms: C_17  and  C_23
REMARK   21  A    between atoms: C_18  and  C_24
REMARK   22  A    between atoms: C_19  and  C_25
REMARK   23  A    between atoms: C_20  and  C_26
REMARK   24  A    between atoms: C_21  and  C_27
REMARK   25  A    between atoms: C_22  and  C_28
REMARK   26  A    between atoms: C_23  and  C_29
REMARK   27  A    between atoms: C_24  and  C_30
REMARK   28  A    between atoms: C_25  and  C_31
REMARK   29  A    between atoms: C_26  and  C_32
REMARK   30  A    between atoms: C_27  and  C_33
REMARK   31  A    between atoms: C_28  and  C_34
REMARK   32  A    between atoms: C_29  and  C_35
REMARK   33  A    between atoms: C_30  and  C_36
REMARK   34  A    between atoms: C_31  and  C_37
REMARK   35  A    between atoms: C_32  and  C_40
REMARK   36  A    between atoms: C_33  and  C_38
REMARK   37  A    between atoms: C_34  and  C_39
REMARK   38  A    between atoms: C_35  and  C_41
REMARK   39  A    between atoms: C_36  and  C_42
REMARK   40  A    between atoms: C_37  and  C_44
REMARK   41  A    between atoms: C_38  and  C_47
REMARK   42  A    between atoms: C_39  and  C_48
REMARK   43  A    between atoms: C_40  and  C_49
REMARK   44  A    between atoms: C_41  and  C_50
REMARK   45  A    between atoms: C_42  and  C_51
REMARK   46  A    between atoms: C_43  and  C_45
REMARK   47  A    between atoms: C_43  and  C_46
REMARK                            x       y       z     vdW  Elec       q    Type
REMARK                         _______ _______ _______ _____ _____    ______ ____
ROOT
ATOM      1  C   UNL     1     -25.186   8.112   9.657  0.00  0.00    +0.000 C 
ENDROOT
BRANCH   1   2
ATOM      2  C   UNL     1     -25.395   8.704   8.879  0.00  0.00    +0.000 C 
BRANCH   2   3
ATOM      3  O   UNL     1     -26.213   8.535   8.328  0.00  0.00    +0.000 OA
BRANCH   3   5
ATOM      4  O   UNL     1     -26.188   9.129   6.702  0.00  0.00    +0.000 OA
ATOM      5  C   UNL     1     -26.504   9.207   7.647  0.00  0.00    +0.000 C 
BRANCH   5   6
ATOM      6  C   UNL     1     -27.110   9.957   7.912  0.00  0.00    +0.000 C 
BRANCH   6   7
ATOM      7  C   UNL     1     -27.037  10.844   7.456  0.00  0.00    +0.000 C 
BRANCH   7   8
ATOM      8  C   UNL     1     -27.281  11.680   7.947  0.00  0.00    +0.000 C 
BRANCH   8   9
ATOM      9  C   UNL     1     -27.481  11.644   8.927  0.00  0.00    +0.000 C 
BRANCH   9  10
ATOM     10  C   UNL     1     -27.855  12.448   9.390  0.00  0.00    +0.000 C 
BRANCH  10  11
ATOM     11  C   UNL     1     -27.879  12.482  10.389  0.00  0.00    +0.000 C 
BRANCH  11  12
ATOM     12  C   UNL     1     -27.467  13.254  10.873  0.00  0.00    +0.000 C 
BRANCH  12  13
ATOM     13  C   UNL     1     -27.196  13.157  11.831  0.00  0.00    +0.000 C 
BRANCH  13  14
ATOM     14  C   UNL     1     -27.523  13.812  12.512  0.00  0.00    +0.000 C 
BRANCH  14  15
ATOM     15  C   UNL     1     -27.047  13.903  13.387  0.00  0.00    +0.000 C 
BRANCH  15  16
ATOM     16  C   UNL     1     -27.513  13.659  14.237  0.00  0.00    +0.000 C 
BRANCH  16  17
ATOM     17  C   UNL     1     -27.189  14.027  15.109  0.00  0.00    +0.000 C 
ATOM     18  C   UNL     1     -27.756  14.673  15.620  0.00  0.00    +0.000 C 
ENDBRANCH  16  17
ENDBRANCH  15  16
ENDBRANCH  14  15
ENDBRANCH  13  14
ENDBRANCH  12  13
ENDBRANCH  11  12
ENDBRANCH  10  11
ENDBRANCH   9  10
ENDBRANCH   8   9
ENDBRANCH   7   8
ENDBRANCH   6   7
ENDBRANCH   5   6
ENDBRANCH   3   5
ENDBRANCH   2   3
ENDBRANCH   1   2
BRANCH   1  19
ATOM     19  C   UNL     1     -25.589   8.301  10.553  0.00  0.00    +0.000 C 
BRANCH  19  20
ATOM     20  O   UNL     1     -25.672   9.244  10.874  0.00  0.00    +0.000 OA
BRANCH  20  22
ATOM     21  O   UNL     1     -27.021   9.505  11.930  0.00  0.00    +0.000 OA
ATOM     22  C   UNL     1     -26.033   9.431  11.788  0.00  0.00    +0.000 C 
BRANCH  22  23
ATOM     23  C   UNL     1     -25.408   9.545  12.559  0.00  0.00    +0.000 C 
BRANCH  23  24
ATOM     24  C   UNL     1     -25.424  10.388  13.097  0.00  0.00    +0.000 C 
BRANCH  24  25
ATOM     25  C   UNL     1     -24.620  10.661  13.624  0.00  0.00    +0.000 C 
BRANCH  25  26
ATOM     26  C   UNL     1     -24.732  11.124  14.503  0.00  0.00    +0.000 C 
BRANCH  26  27
ATOM     27  C   UNL     1     -23.958  11.600  14.920  0.00  0.00    +0.000 C 
BRANCH  27  28
ATOM     28  C   UNL     1     -24.118  12.367  15.541  0.00  0.00    +0.000 C 
BRANCH  28  29
ATOM     29  C   UNL     1     -23.343  12.879  15.913  0.00  0.00    +0.000 C 
BRANCH  29  30
ATOM     30  C   UNL     1     -23.448  13.399  16.761  0.00  0.00    +0.000 C 
BRANCH  30  31
ATOM     31  C   UNL     1     -22.643  13.774  17.221  0.00  0.00    +0.000 C 
BRANCH  31  32
ATOM     32  C   UNL     1     -22.741  14.237  18.101  0.00  0.00    +0.000 C 
BRANCH  32  33
ATOM     33  C   UNL     1     -21.953  14.688  18.520  0.00  0.00    +0.000 C 
BRANCH  33  34
ATOM     34  C   UNL     1     -22.014  15.039  19.454  0.00  0.00    +0.000 C 
ATOM     35  C   UNL     1     -21.182  15.197  19.985  0.00  0.00    +0.000 C 
ENDBRANCH  33  34
ENDBRANCH  32  33
ENDBRANCH  31  32
ENDBRANCH  30  31
ENDBRANCH  29  30
ENDBRANCH  28  29
ENDBRANCH  27  28
ENDBRANCH  26  27
ENDBRANCH  25  26
ENDBRANCH  24  25
ENDBRANCH  23  24
ENDBRANCH  22  23
ENDBRANCH  20  22
ENDBRANCH  19  20
ENDBRANCH   1  19
BRANCH   1  36
ATOM     36  O   UNL     1     -24.573   7.330   9.540  0.00  0.00    +0.000 OA
BRANCH  36  38
ATOM     37  O   UNL     1     -25.051   6.062  10.619  0.00  0.00    +0.000 OA
ATOM     38  C   UNL     1     -24.373   6.731  10.315  0.00  0.00    +0.000 C 
BRANCH  38  39
ATOM     39  C   UNL     1     -23.494   6.802  10.787  0.00  0.00    +0.000 C 
BRANCH  39  40
ATOM     40  C   UNL     1     -23.364   6.354  11.672  0.00  0.00    +0.000 C 
BRANCH  40  41
ATOM     41  C   UNL     1     -22.614   6.636  12.270  0.00  0.00    +0.000 C 
BRANCH  41  42
ATOM     42  C   UNL     1     -22.753   7.370  12.935  0.00  0.00    +0.000 C 
BRANCH  42  43
ATOM     43  C   UNL     1     -22.472   7.243  13.887  0.00  0.00    +0.000 C 
BRANCH  43  44
ATOM     44  C   UNL     1     -22.282   8.039  14.462  0.00  0.00    +0.000 C 
BRANCH  44  45
ATOM     45  C   UNL     1     -22.708   8.117  15.364  0.00  0.00    +0.000 C 
BRANCH  45  46
ATOM     46  C   UNL     1     -22.225   8.582  16.106  0.00  0.00    +0.000 C 
BRANCH  46  47
ATOM     47  C   UNL     1     -22.684   8.736  16.981  0.00  0.00    +0.000 C 
BRANCH  47  48
ATOM     48  C   UNL     1     -22.503   9.572  17.499  0.00  0.00    +0.000 C 
BRANCH  48  49
ATOM     49  C   UNL     1     -23.166   9.895  18.175  0.00  0.00    +0.000 C 
BRANCH  49  50
ATOM     50  C   UNL     1     -22.878  10.521  18.899  0.00  0.00    +0.000 C 
ATOM     51  C   UNL     1     -23.551  10.885  19.543  0.00  0.00    +0.000 C 
ENDBRANCH  49  50
ENDBRANCH  48  49
ENDBRANCH  47  48
ENDBRANCH  46  47
ENDBRANCH  45  46
ENDBRANCH  44  45
ENDBRANCH  43  44
ENDBRANCH  42  43
ENDBRANCH  41  42
ENDBRANCH  40  41
ENDBRANCH  39  40
ENDBRANCH  38  39
ENDBRANCH  36  38
ENDBRANCH   1  36
TORSDOF 44
ENDMDL
MODEL 6
REMARK VINA RESULT:    -3.880      7.153     12.685
REMARK INTER + INTRA:         -12.370
REMARK INTER:                 -11.889
REMARK INTRA:                  -0.480
REMARK UNBOUND:                 1.491
REMARK  Name = IMPHY000031
REMARK  47 active torsions:
REMARK  status: ('A' for Active; 'I' for Inactive)
REMARK    1  A    between atoms: O_1  and  C_43
REMARK    2  A    between atoms: O_1  and  C_44
REMARK    3  A    between atoms: O_2  and  C_45
REMARK    4  A    between atoms: O_2  and  C_47
REMARK    5  A    between atoms: O_3  and  C_46
REMARK    6  A    between atoms: O_3  and  C_48
REMARK    7  A    between atoms: C_7  and  C_8
REMARK    8  A    between atoms: C_7  and  C_13
REMARK    9  A    between atoms: C_8  and  C_14
REMARK   10  A    between atoms: C_9  and  C_11
REMARK   11  A    between atoms: C_9  and  C_15
REMARK   12  A    between atoms: C_10  and  C_12
REMARK   13  A    between atoms: C_10  and  C_16
REMARK   14  A    between atoms: C_11  and  C_17
REMARK   15  A    between atoms: C_12  and  C_18
REMARK   16  A    between atoms: C_13  and  C_19
REMARK   17  A    between atoms: C_14  and  C_20
REMARK   18  A    between atoms: C_15  and  C_21
REMARK   19  A    between atoms: C_16  and  C_22
REMARK   20  A    between atoms: C_17  and  C_23
REMARK   21  A    between atoms: C_18  and  C_24
REMARK   22  A    between atoms: C_19  and  C_25
REMARK   23  A    between atoms: C_20  and  C_26
REMARK   24  A    between atoms: C_21  and  C_27
REMARK   25  A    between atoms: C_22  and  C_28
REMARK   26  A    between atoms: C_23  and  C_29
REMARK   27  A    between atoms: C_24  and  C_30
REMARK   28  A    between atoms: C_25  and  C_31
REMARK   29  A    between atoms: C_26  and  C_32
REMARK   30  A    between atoms: C_27  and  C_33
REMARK   31  A    between atoms: C_28  and  C_34
REMARK   32  A    between atoms: C_29  and  C_35
REMARK   33  A    between atoms: C_30  and  C_36
REMARK   34  A    between atoms: C_31  and  C_37
REMARK   35  A    between atoms: C_32  and  C_40
REMARK   36  A    between atoms: C_33  and  C_38
REMARK   37  A    between atoms: C_34  and  C_39
REMARK   38  A    between atoms: C_35  and  C_41
REMARK   39  A    between atoms: C_36  and  C_42
REMARK   40  A    between atoms: C_37  and  C_44
REMARK   41  A    between atoms: C_38  and  C_47
REMARK   42  A    between atoms: C_39  and  C_48
REMARK   43  A    between atoms: C_40  and  C_49
REMARK   44  A    between atoms: C_41  and  C_50
REMARK   45  A    between atoms: C_42  and  C_51
REMARK   46  A    between atoms: C_43  and  C_45
REMARK   47  A    between atoms: C_43  and  C_46
REMARK                            x       y       z     vdW  Elec       q    Type
REMARK                         _______ _______ _______ _____ _____    ______ ____
ROOT
ATOM      1  C   UNL     1     -32.174  14.403   6.394  0.00  0.00    +0.000 C 
ENDROOT
BRANCH   1   2
ATOM      2  C   UNL     1     -32.719  13.664   6.789  0.00  0.00    +0.000 C 
BRANCH   2   3
ATOM      3  O   UNL     1     -33.264  13.828   7.611  0.00  0.00    +0.000 OA
BRANCH   3   5
ATOM      4  O   UNL     1     -33.776  12.186   7.812  0.00  0.00    +0.000 OA
ATOM      5  C   UNL     1     -33.510  13.065   8.208  0.00  0.00    +0.000 C 
BRANCH   5   6
ATOM      6  C   UNL     1     -33.492  13.181   9.201  0.00  0.00    +0.000 C 
BRANCH   6   7
ATOM      7  C   UNL     1     -32.726  12.819   9.733  0.00  0.00    +0.000 C 
BRANCH   7   8
ATOM      8  C   UNL     1     -32.355  13.346  10.497  0.00  0.00    +0.000 C 
BRANCH   8   9
ATOM      9  C   UNL     1     -31.402  13.223  10.773  0.00  0.00    +0.000 C 
BRANCH   9  10
ATOM     10  C   UNL     1     -30.951  13.914  11.338  0.00  0.00    +0.000 C 
BRANCH  10  11
ATOM     11  C   UNL     1     -30.138  13.675  11.868  0.00  0.00    +0.000 C 
BRANCH  11  12
ATOM     12  C   UNL     1     -29.730  14.345  12.487  0.00  0.00    +0.000 C 
BRANCH  12  13
ATOM     13  C   UNL     1     -28.740  14.486  12.490  0.00  0.00    +0.000 C 
BRANCH  13  14
ATOM     14  C   UNL     1     -28.228  14.424  13.347  0.00  0.00    +0.000 C 
BRANCH  14  15
ATOM     15  C   UNL     1     -27.278  14.114  13.341  0.00  0.00    +0.000 C 
BRANCH  15  16
ATOM     16  C   UNL     1     -26.828  13.863  14.198  0.00  0.00    +0.000 C 
BRANCH  16  17
ATOM     17  C   UNL     1     -26.371  12.978  14.283  0.00  0.00    +0.000 C 
ATOM     18  C   UNL     1     -25.699  12.829  15.008  0.00  0.00    +0.000 C 
ENDBRANCH  16  17
ENDBRANCH  15  16
ENDBRANCH  14  15
ENDBRANCH  13  14
ENDBRANCH  12  13
ENDBRANCH  11  12
ENDBRANCH  10  11
ENDBRANCH   9  10
ENDBRANCH   8   9
ENDBRANCH   7   8
ENDBRANCH   6   7
ENDBRANCH   5   6
ENDBRANCH   3   5
ENDBRANCH   2   3
ENDBRANCH   1   2
BRANCH   1  19
ATOM     19  C   UNL     1     -31.559  14.936   6.976  0.00  0.00    +0.000 C 
BRANCH  19  20
ATOM     20  O   UNL     1     -30.654  14.580   7.207  0.00  0.00    +0.000 OA
BRANCH  20  22
ATOM     21  O   UNL     1     -30.463  15.709   8.506  0.00  0.00    +0.000 OA
ATOM     22  C   UNL     1     -30.062  15.085   7.835  0.00  0.00    +0.000 C 
BRANCH  22  23
ATOM     23  C   UNL     1     -29.070  14.967   7.791  0.00  0.00    +0.000 C 
BRANCH  23  24
ATOM     24  C   UNL     1     -28.566  14.668   8.601  0.00  0.00    +0.000 C 
BRANCH  24  25
ATOM     25  C   UNL     1     -27.785  14.052   8.505  0.00  0.00    +0.000 C 
BRANCH  25  26
ATOM     26  C   UNL     1     -27.413  13.585   9.307  0.00  0.00    +0.000 C 
BRANCH  26  27
ATOM     27  C   UNL     1     -27.426  12.586   9.355  0.00  0.00    +0.000 C 
BRANCH  27  28
ATOM     28  C   UNL     1     -27.206  12.124  10.214  0.00  0.00    +0.000 C 
BRANCH  28  29
ATOM     29  C   UNL     1     -27.697  11.293  10.474  0.00  0.00    +0.000 C 
BRANCH  29  30
ATOM     30  C   UNL     1     -27.608  10.929  11.402  0.00  0.00    +0.000 C 
BRANCH  30  31
ATOM     31  C   UNL     1     -28.404  10.539  11.864  0.00  0.00    +0.000 C 
BRANCH  31  32
ATOM     32  C   UNL     1     -28.410  10.450  12.860  0.00  0.00    +0.000 C 
BRANCH  32  33
ATOM     33  C   UNL     1     -29.227  10.699  13.379  0.00  0.00    +0.000 C 
BRANCH  33  34
ATOM     34  C   UNL     1     -29.263  10.533  14.365  0.00  0.00    +0.000 C 
ATOM     35  C   UNL     1     -29.651  11.225  14.974  0.00  0.00    +0.000 C 
ENDBRANCH  33  34
ENDBRANCH  32  33
ENDBRANCH  31  32
ENDBRANCH  30  31
ENDBRANCH  29  30
ENDBRANCH  28  29
ENDBRANCH  27  28
ENDBRANCH  26  27
ENDBRANCH  25  26
ENDBRANCH  24  25
ENDBRANCH  23  24
ENDBRANCH  22  23
ENDBRANCH  20  22
ENDBRANCH  19  20
ENDBRANCH   1  19
BRANCH   1  36
ATOM     36  O   UNL     1     -32.242  14.610   5.418  0.00  0.00    +0.000 OA
BRANCH  36  38
ATOM     37  O   UNL     1     -33.327  15.959   5.465  0.00  0.00    +0.000 OA
ATOM     38  C   UNL     1     -32.493  15.530   5.118  0.00  0.00    +0.000 C 
BRANCH  38  39
ATOM     39  C   UNL     1     -31.910  16.021   4.471  0.00  0.00    +0.000 C 
BRANCH  39  40
ATOM     40  C   UNL     1     -32.290  16.764   3.920  0.00  0.00    +0.000 C 
BRANCH  40  41
ATOM     41  C   UNL     1     -31.788  17.103   3.124  0.00  0.00    +0.000 C 
BRANCH  41  42
ATOM     42  C   UNL     1     -31.323  17.988   3.165  0.00  0.00    +0.000 C 
BRANCH  42  43
ATOM     43  C   UNL     1     -31.630  18.743   2.585  0.00  0.00    +0.000 C 
BRANCH  43  44
ATOM     44  C   UNL     1     -31.111  18.987   1.766  0.00  0.00    +0.000 C 
BRANCH  44  45
ATOM     45  C   UNL     1     -31.361  19.799   1.239  0.00  0.00    +0.000 C 
BRANCH  45  46
ATOM     46  C   UNL     1     -30.694  20.223   0.627  0.00  0.00    +0.000 C 
BRANCH  46  47
ATOM     47  C   UNL     1     -30.982  20.562  -0.269  0.00  0.00    +0.000 C 
BRANCH  47  48
ATOM     48  C   UNL     1     -30.314  20.648  -1.009  0.00  0.00    +0.000 C 
BRANCH  48  49
ATOM     49  C   UNL     1     -30.286  21.480  -1.562  0.00  0.00    +0.000 C 
BRANCH  49  50
ATOM     50  C   UNL     1     -29.568  21.600  -2.247  0.00  0.00    +0.000 C 
ATOM     51  C   UNL     1     -29.469  22.476  -2.720  0.00  0.00    +0.000 C 
ENDBRANCH  49  50
ENDBRANCH  48  49
ENDBRANCH  47  48
ENDBRANCH  46  47
ENDBRANCH  45  46
ENDBRANCH  44  45
ENDBRANCH  43  44
ENDBRANCH  42  43
ENDBRANCH  41  42
ENDBRANCH  40  41
ENDBRANCH  39  40
ENDBRANCH  38  39
ENDBRANCH  36  38
ENDBRANCH   1  36
TORSDOF 44
ENDMDL
MODEL 7
REMARK VINA RESULT:    -3.872      7.298     11.083
REMARK INTER + INTRA:         -12.340
REMARK INTER:                 -11.223
REMARK INTRA:                  -1.118
REMARK UNBOUND:                 1.491
REMARK  Name = IMPHY000031
REMARK  47 active torsions:
REMARK  status: ('A' for Active; 'I' for Inactive)
REMARK    1  A    between atoms: O_1  and  C_43
REMARK    2  A    between atoms: O_1  and  C_44
REMARK    3  A    between atoms: O_2  and  C_45
REMARK    4  A    between atoms: O_2  and  C_47
REMARK    5  A    between atoms: O_3  and  C_46
REMARK    6  A    between atoms: O_3  and  C_48
REMARK    7  A    between atoms: C_7  and  C_8
REMARK    8  A    between atoms: C_7  and  C_13
REMARK    9  A    between atoms: C_8  and  C_14
REMARK   10  A    between atoms: C_9  and  C_11
REMARK   11  A    between atoms: C_9  and  C_15
REMARK   12  A    between atoms: C_10  and  C_12
REMARK   13  A    between atoms: C_10  and  C_16
REMARK   14  A    between atoms: C_11  and  C_17
REMARK   15  A    between atoms: C_12  and  C_18
REMARK   16  A    between atoms: C_13  and  C_19
REMARK   17  A    between atoms: C_14  and  C_20
REMARK   18  A    between atoms: C_15  and  C_21
REMARK   19  A    between atoms: C_16  and  C_22
REMARK   20  A    between atoms: C_17  and  C_23
REMARK   21  A    between atoms: C_18  and  C_24
REMARK   22  A    between atoms: C_19  and  C_25
REMARK   23  A    between atoms: C_20  and  C_26
REMARK   24  A    between atoms: C_21  and  C_27
REMARK   25  A    between atoms: C_22  and  C_28
REMARK   26  A    between atoms: C_23  and  C_29
REMARK   27  A    between atoms: C_24  and  C_30
REMARK   28  A    between atoms: C_25  and  C_31
REMARK   29  A    between atoms: C_26  and  C_32
REMARK   30  A    between atoms: C_27  and  C_33
REMARK   31  A    between atoms: C_28  and  C_34
REMARK   32  A    between atoms: C_29  and  C_35
REMARK   33  A    between atoms: C_30  and  C_36
REMARK   34  A    between atoms: C_31  and  C_37
REMARK   35  A    between atoms: C_32  and  C_40
REMARK   36  A    between atoms: C_33  and  C_38
REMARK   37  A    between atoms: C_34  and  C_39
REMARK   38  A    between atoms: C_35  and  C_41
REMARK   39  A    between atoms: C_36  and  C_42
REMARK   40  A    between atoms: C_37  and  C_44
REMARK   41  A    between atoms: C_38  and  C_47
REMARK   42  A    between atoms: C_39  and  C_48
REMARK   43  A    between atoms: C_40  and  C_49
REMARK   44  A    between atoms: C_41  and  C_50
REMARK   45  A    between atoms: C_42  and  C_51
REMARK   46  A    between atoms: C_43  and  C_45
REMARK   47  A    between atoms: C_43  and  C_46
REMARK                            x       y       z     vdW  Elec       q    Type
REMARK                         _______ _______ _______ _____ _____    ______ ____
ROOT
ATOM      1  C   UNL     1     -32.928  10.399   9.105  0.00  0.00    +0.000 C 
ENDROOT
BRANCH   1   2
ATOM      2  C   UNL     1     -32.956   9.581   9.680  0.00  0.00    +0.000 C 
BRANCH   2   3
ATOM      3  O   UNL     1     -32.245   9.429  10.367  0.00  0.00    +0.000 OA
BRANCH   3   5
ATOM      4  O   UNL     1     -32.649   7.831  10.901  0.00  0.00    +0.000 OA
ATOM      5  C   UNL     1     -31.966   8.497  10.600  0.00  0.00    +0.000 C 
BRANCH   5   6
ATOM      6  C   UNL     1     -31.005   8.232  10.532  0.00  0.00    +0.000 C 
BRANCH   6   7
ATOM      7  C   UNL     1     -30.297   8.810  10.937  0.00  0.00    +0.000 C 
BRANCH   7   8
ATOM      8  C   UNL     1     -29.341   8.695  10.665  0.00  0.00    +0.000 C 
BRANCH   8   9
ATOM      9  C   UNL     1     -28.659   9.375  10.934  0.00  0.00    +0.000 C 
BRANCH   9  10
ATOM     10  C   UNL     1     -28.819  10.345  10.747  0.00  0.00    +0.000 C 
BRANCH  10  11
ATOM     11  C   UNL     1     -28.049  10.948  10.541  0.00  0.00    +0.000 C 
BRANCH  11  12
ATOM     12  C   UNL     1     -28.208  11.825  10.087  0.00  0.00    +0.000 C 
BRANCH  12  13
ATOM     13  C   UNL     1     -27.482  12.246   9.545  0.00  0.00    +0.000 C 
BRANCH  13  14
ATOM     14  C   UNL     1     -27.707  12.934   8.855  0.00  0.00    +0.000 C 
BRANCH  14  15
ATOM     15  C   UNL     1     -27.261  13.828   8.876  0.00  0.00    +0.000 C 
BRANCH  15  16
ATOM     16  C   UNL     1     -27.706  14.620   8.457  0.00  0.00    +0.000 C 
BRANCH  16  17
ATOM     17  C   UNL     1     -27.821  15.464   8.980  0.00  0.00    +0.000 C 
ATOM     18  C   UNL     1     -28.120  16.300   8.520  0.00  0.00    +0.000 C 
ENDBRANCH  16  17
ENDBRANCH  15  16
ENDBRANCH  14  15
ENDBRANCH  13  14
ENDBRANCH  12  13
ENDBRANCH  11  12
ENDBRANCH  10  11
ENDBRANCH   9  10
ENDBRANCH   8   9
ENDBRANCH   7   8
ENDBRANCH   6   7
ENDBRANCH   5   6
ENDBRANCH   3   5
ENDBRANCH   2   3
ENDBRANCH   1   2
BRANCH   1  19
ATOM     19  C   UNL     1     -32.959  11.306   9.525  0.00  0.00    +0.000 C 
BRANCH  19  20
ATOM     20  O   UNL     1     -33.784  11.608  10.003  0.00  0.00    +0.000 OA
BRANCH  20  22
ATOM     21  O   UNL     1     -34.710  13.071  10.017  0.00  0.00    +0.000 OA
ATOM     22  C   UNL     1     -33.885  12.566  10.270  0.00  0.00    +0.000 C 
BRANCH  22  23
ATOM     23  C   UNL     1     -33.161  13.019  10.790  0.00  0.00    +0.000 C 
BRANCH  23  24
ATOM     24  C   UNL     1     -33.264  13.976  11.061  0.00  0.00    +0.000 C 
BRANCH  24  25
ATOM     25  C   UNL     1     -32.593  14.398  11.671  0.00  0.00    +0.000 C 
BRANCH  25  26
ATOM     26  C   UNL     1     -31.653  14.538  11.361  0.00  0.00    +0.000 C 
BRANCH  26  27
ATOM     27  C   UNL     1     -30.959  14.868  12.001  0.00  0.00    +0.000 C 
BRANCH  27  28
ATOM     28  C   UNL     1     -29.989  14.721  11.806  0.00  0.00    +0.000 C 
BRANCH  28  29
ATOM     29  C   UNL     1     -29.326  14.708  12.554  0.00  0.00    +0.000 C 
BRANCH  29  30
ATOM     30  C   UNL     1     -28.378  14.442  12.376  0.00  0.00    +0.000 C 
BRANCH  30  31
ATOM     31  C   UNL     1     -27.788  14.160  13.133  0.00  0.00    +0.000 C 
BRANCH  31  32
ATOM     32  C   UNL     1     -27.551  13.195  13.248  0.00  0.00    +0.000 C 
BRANCH  32  33
ATOM     33  C   UNL     1     -26.638  12.939  13.568  0.00  0.00    +0.000 C 
BRANCH  33  34
ATOM     34  C   UNL     1     -26.487  12.042  13.983  0.00  0.00    +0.000 C 
ATOM     35  C   UNL     1     -25.700  11.894  14.582  0.00  0.00    +0.000 C 
ENDBRANCH  33  34
ENDBRANCH  32  33
ENDBRANCH  31  32
ENDBRANCH  30  31
ENDBRANCH  29  30
ENDBRANCH  28  29
ENDBRANCH  27  28
ENDBRANCH  26  27
ENDBRANCH  25  26
ENDBRANCH  24  25
ENDBRANCH  23  24
ENDBRANCH  22  23
ENDBRANCH  20  22
ENDBRANCH  19  20
ENDBRANCH   1  19
BRANCH   1  36
ATOM     36  O   UNL     1     -32.870  10.309   8.111  0.00  0.00    +0.000 OA
BRANCH  36  38
ATOM     37  O   UNL     1     -31.946  11.651   7.522  0.00  0.00    +0.000 OA
ATOM     38  C   UNL     1     -32.073  10.664   7.623  0.00  0.00    +0.000 C 
BRANCH  38  39
ATOM     39  C   UNL     1     -31.402  10.032   7.235  0.00  0.00    +0.000 C 
BRANCH  39  40
ATOM     40  C   UNL     1     -30.456  10.328   7.100  0.00  0.00    +0.000 C 
BRANCH  40  41
ATOM     41  C   UNL     1     -29.770   9.677   6.775  0.00  0.00    +0.000 C 
BRANCH  41  42
ATOM     42  C   UNL     1     -28.825   9.742   7.098  0.00  0.00    +0.000 C 
BRANCH  42  43
ATOM     43  C   UNL     1     -28.076   9.818   6.441  0.00  0.00    +0.000 C 
BRANCH  43  44
ATOM     44  C   UNL     1     -27.131   9.685   6.741  0.00  0.00    +0.000 C 
BRANCH  44  45
ATOM     45  C   UNL     1     -26.944   9.262   7.628  0.00  0.00    +0.000 C 
BRANCH  45  46
ATOM     46  C   UNL     1     -26.002   9.177   7.952  0.00  0.00    +0.000 C 
BRANCH  46  47
ATOM     47  C   UNL     1     -25.774   8.503   8.655  0.00  0.00    +0.000 C 
BRANCH  47  48
ATOM     48  C   UNL     1     -25.251   8.778   9.461  0.00  0.00    +0.000 C 
BRANCH  48  49
ATOM     49  C   UNL     1     -24.804   8.086  10.028  0.00  0.00    +0.000 C 
BRANCH  49  50
ATOM     50  C   UNL     1     -24.698   8.238  11.011  0.00  0.00    +0.000 C 
ATOM     51  C   UNL     1     -25.095   9.050  11.438  0.00  0.00    +0.000 C 
ENDBRANCH  49  50
ENDBRANCH  48  49
ENDBRANCH  47  48
ENDBRANCH  46  47
ENDBRANCH  45  46
ENDBRANCH  44  45
ENDBRANCH  43  44
ENDBRANCH  42  43
ENDBRANCH  41  42
ENDBRANCH  40  41
ENDBRANCH  39  40
ENDBRANCH  38  39
ENDBRANCH  36  38
ENDBRANCH   1  36
TORSDOF 44
ENDMDL
MODEL 8
REMARK VINA RESULT:    -3.801     13.816     17.670
REMARK INTER + INTRA:         -12.087
REMARK INTER:                 -12.850
REMARK INTRA:                   0.764
REMARK UNBOUND:                 1.491
REMARK  Name = IMPHY000031
REMARK  47 active torsions:
REMARK  status: ('A' for Active; 'I' for Inactive)
REMARK    1  A    between atoms: O_1  and  C_43
REMARK    2  A    between atoms: O_1  and  C_44
REMARK    3  A    between atoms: O_2  and  C_45
REMARK    4  A    between atoms: O_2  and  C_47
REMARK    5  A    between atoms: O_3  and  C_46
REMARK    6  A    between atoms: O_3  and  C_48
REMARK    7  A    between atoms: C_7  and  C_8
REMARK    8  A    between atoms: C_7  and  C_13
REMARK    9  A    between atoms: C_8  and  C_14
REMARK   10  A    between atoms: C_9  and  C_11
REMARK   11  A    between atoms: C_9  and  C_15
REMARK   12  A    between atoms: C_10  and  C_12
REMARK   13  A    between atoms: C_10  and  C_16
REMARK   14  A    between atoms: C_11  and  C_17
REMARK   15  A    between atoms: C_12  and  C_18
REMARK   16  A    between atoms: C_13  and  C_19
REMARK   17  A    between atoms: C_14  and  C_20
REMARK   18  A    between atoms: C_15  and  C_21
REMARK   19  A    between atoms: C_16  and  C_22
REMARK   20  A    between atoms: C_17  and  C_23
REMARK   21  A    between atoms: C_18  and  C_24
REMARK   22  A    between atoms: C_19  and  C_25
REMARK   23  A    between atoms: C_20  and  C_26
REMARK   24  A    between atoms: C_21  and  C_27
REMARK   25  A    between atoms: C_22  and  C_28
REMARK   26  A    between atoms: C_23  and  C_29
REMARK   27  A    between atoms: C_24  and  C_30
REMARK   28  A    between atoms: C_25  and  C_31
REMARK   29  A    between atoms: C_26  and  C_32
REMARK   30  A    between atoms: C_27  and  C_33
REMARK   31  A    between atoms: C_28  and  C_34
REMARK   32  A    between atoms: C_29  and  C_35
REMARK   33  A    between atoms: C_30  and  C_36
REMARK   34  A    between atoms: C_31  and  C_37
REMARK   35  A    between atoms: C_32  and  C_40
REMARK   36  A    between atoms: C_33  and  C_38
REMARK   37  A    between atoms: C_34  and  C_39
REMARK   38  A    between atoms: C_35  and  C_41
REMARK   39  A    between atoms: C_36  and  C_42
REMARK   40  A    between atoms: C_37  and  C_44
REMARK   41  A    between atoms: C_38  and  C_47
REMARK   42  A    between atoms: C_39  and  C_48
REMARK   43  A    between atoms: C_40  and  C_49
REMARK   44  A    between atoms: C_41  and  C_50
REMARK   45  A    between atoms: C_42  and  C_51
REMARK   46  A    between atoms: C_43  and  C_45
REMARK   47  A    between atoms: C_43  and  C_46
REMARK                            x       y       z     vdW  Elec       q    Type
REMARK                         _______ _______ _______ _____ _____    ______ ____
ROOT
ATOM      1  C   UNL     1     -15.365   3.660   5.084  0.00  0.00    +0.000 C 
ENDROOT
BRANCH   1   2
ATOM      2  C   UNL     1     -16.022   3.146   5.636  0.00  0.00    +0.000 C 
BRANCH   2   3
ATOM      3  O   UNL     1     -17.003   3.255   5.475  0.00  0.00    +0.000 OA
BRANCH   3   5
ATOM      4  O   UNL     1     -17.865   3.000   6.955  0.00  0.00    +0.000 OA
ATOM      5  C   UNL     1     -17.659   2.728   6.015  0.00  0.00    +0.000 C 
BRANCH   5   6
ATOM      6  C   UNL     1     -18.109   1.930   5.615  0.00  0.00    +0.000 C 
BRANCH   6   7
ATOM      7  C   UNL     1     -18.774   2.049   4.878  0.00  0.00    +0.000 C 
BRANCH   7   8
ATOM      8  C   UNL     1     -19.152   1.248   4.412  0.00  0.00    +0.000 C 
BRANCH   8   9
ATOM      9  C   UNL     1     -18.817   0.994   3.504  0.00  0.00    +0.000 C 
BRANCH   9  10
ATOM     10  C   UNL     1     -19.434   0.562   2.847  0.00  0.00    +0.000 C 
BRANCH  10  11
ATOM     11  C   UNL     1     -19.077   0.220   1.977  0.00  0.00    +0.000 C 
BRANCH  11  12
ATOM     12  C   UNL     1     -19.096   0.803   1.165  0.00  0.00    +0.000 C 
BRANCH  12  13
ATOM     13  C   UNL     1     -18.975   0.401   0.258  0.00  0.00    +0.000 C 
BRANCH  13  14
ATOM     14  C   UNL     1     -19.132   0.954  -0.560  0.00  0.00    +0.000 C 
BRANCH  14  15
ATOM     15  C   UNL     1     -18.561   1.756  -0.738  0.00  0.00    +0.000 C 
BRANCH  15  16
ATOM     16  C   UNL     1     -18.716   2.308  -1.557  0.00  0.00    +0.000 C 
BRANCH  16  17
ATOM     17  C   UNL     1     -18.036   2.984  -1.841  0.00  0.00    +0.000 C 
ATOM     18  C   UNL     1     -18.310   3.931  -2.005  0.00  0.00    +0.000 C 
ENDBRANCH  16  17
ENDBRANCH  15  16
ENDBRANCH  14  15
ENDBRANCH  13  14
ENDBRANCH  12  13
ENDBRANCH  11  12
ENDBRANCH  10  11
ENDBRANCH   9  10
ENDBRANCH   8   9
ENDBRANCH   7   8
ENDBRANCH   6   7
ENDBRANCH   5   6
ENDBRANCH   3   5
ENDBRANCH   2   3
ENDBRANCH   1   2
BRANCH   1  19
ATOM     19  C   UNL     1     -15.111   3.331   4.174  0.00  0.00    +0.000 C 
BRANCH  19  20
ATOM     20  O   UNL     1     -15.319   3.884   3.367  0.00  0.00    +0.000 OA
BRANCH  20  22
ATOM     21  O   UNL     1     -14.697   3.070   1.971  0.00  0.00    +0.000 OA
ATOM     22  C   UNL     1     -15.471   3.441   2.483  0.00  0.00    +0.000 C 
BRANCH  22  23
ATOM     23  C   UNL     1     -16.397   3.369   2.113  0.00  0.00    +0.000 C 
BRANCH  23  24
ATOM     24  C   UNL     1     -16.700   4.003   1.401  0.00  0.00    +0.000 C 
BRANCH  24  25
ATOM     25  C   UNL     1     -17.496   4.588   1.558  0.00  0.00    +0.000 C 
BRANCH  25  26
ATOM     26  C   UNL     1     -18.349   4.191   1.897  0.00  0.00    +0.000 C 
BRANCH  26  27
ATOM     27  C   UNL     1     -19.228   4.556   1.589  0.00  0.00    +0.000 C 
BRANCH  27  28
ATOM     28  C   UNL     1     -20.072   4.288   2.054  0.00  0.00    +0.000 C 
BRANCH  28  29
ATOM     29  C   UNL     1     -20.879   4.039   1.520  0.00  0.00    +0.000 C 
BRANCH  29  30
ATOM     30  C   UNL     1     -21.536   3.380   1.885  0.00  0.00    +0.000 C 
BRANCH  30  31
ATOM     31  C   UNL     1     -21.780   3.401   2.854  0.00  0.00    +0.000 C 
BRANCH  31  32
ATOM     32  C   UNL     1     -22.311   2.653   3.253  0.00  0.00    +0.000 C 
BRANCH  32  33
ATOM     33  C   UNL     1     -22.693   2.746   4.173  0.00  0.00    +0.000 C 
BRANCH  33  34
ATOM     34  C   UNL     1     -22.949   1.931   4.693  0.00  0.00    +0.000 C 
ATOM     35  C   UNL     1     -23.762   1.410   4.436  0.00  0.00    +0.000 C 
ENDBRANCH  33  34
ENDBRANCH  32  33
ENDBRANCH  31  32
ENDBRANCH  30  31
ENDBRANCH  29  30
ENDBRANCH  28  29
ENDBRANCH  27  28
ENDBRANCH  26  27
ENDBRANCH  25  26
ENDBRANCH  24  25
ENDBRANCH  23  24
ENDBRANCH  22  23
ENDBRANCH  20  22
ENDBRANCH  19  20
ENDBRANCH   1  19
BRANCH   1  36
ATOM     36  O   UNL     1     -14.961   4.502   5.442  0.00  0.00    +0.000 OA
BRANCH  36  38
ATOM     37  O   UNL     1     -13.347   4.118   5.939  0.00  0.00    +0.000 OA
ATOM     38  C   UNL     1     -14.263   4.458   6.156  0.00  0.00    +0.000 C 
BRANCH  38  39
ATOM     39  C   UNL     1     -14.479   4.753   7.086  0.00  0.00    +0.000 C 
BRANCH  39  40
ATOM     40  C   UNL     1     -13.974   5.510   7.500  0.00  0.00    +0.000 C 
BRANCH  40  41
ATOM     41  C   UNL     1     -14.321   5.949   8.330  0.00  0.00    +0.000 C 
BRANCH  41  42
ATOM     42  C   UNL     1     -13.723   6.544   8.869  0.00  0.00    +0.000 C 
BRANCH  42  43
ATOM     43  C   UNL     1     -13.969   6.780   9.809  0.00  0.00    +0.000 C 
BRANCH  43  44
ATOM     44  C   UNL     1     -14.383   7.668  10.010  0.00  0.00    +0.000 C 
BRANCH  44  45
ATOM     45  C   UNL     1     -14.421   7.999  10.953  0.00  0.00    +0.000 C 
BRANCH  45  46
ATOM     46  C   UNL     1     -15.081   8.707  11.207  0.00  0.00    +0.000 C 
BRANCH  46  47
ATOM     47  C   UNL     1     -15.903   8.462  11.721  0.00  0.00    +0.000 C 
BRANCH  47  48
ATOM     48  C   UNL     1     -15.830   8.195  12.682  0.00  0.00    +0.000 C 
BRANCH  48  49
ATOM     49  C   UNL     1     -16.640   7.878  13.176  0.00  0.00    +0.000 C 
BRANCH  49  50
ATOM     50  C   UNL     1     -16.548   7.202  13.906  0.00  0.00    +0.000 C 
ATOM     51  C   UNL     1     -17.335   6.976  14.482  0.00  0.00    +0.000 C 
ENDBRANCH  49  50
ENDBRANCH  48  49
ENDBRANCH  47  48
ENDBRANCH  46  47
ENDBRANCH  45  46
ENDBRANCH  44  45
ENDBRANCH  43  44
ENDBRANCH  42  43
ENDBRANCH  41  42
ENDBRANCH  40  41
ENDBRANCH  39  40
ENDBRANCH  38  39
ENDBRANCH  36  38
ENDBRANCH   1  36
TORSDOF 44
ENDMDL
MODEL 9
REMARK VINA RESULT:    -3.792      5.661      8.413
REMARK INTER + INTRA:         -12.054
REMARK INTER:                  -8.814
REMARK INTRA:                  -3.240
REMARK UNBOUND:                 1.491
REMARK  Name = IMPHY000031
REMARK  47 active torsions:
REMARK  status: ('A' for Active; 'I' for Inactive)
REMARK    1  A    between atoms: O_1  and  C_43
REMARK    2  A    between atoms: O_1  and  C_44
REMARK    3  A    between atoms: O_2  and  C_45
REMARK    4  A    between atoms: O_2  and  C_47
REMARK    5  A    between atoms: O_3  and  C_46
REMARK    6  A    between atoms: O_3  and  C_48
REMARK    7  A    between atoms: C_7  and  C_8
REMARK    8  A    between atoms: C_7  and  C_13
REMARK    9  A    between atoms: C_8  and  C_14
REMARK   10  A    between atoms: C_9  and  C_11
REMARK   11  A    between atoms: C_9  and  C_15
REMARK   12  A    between atoms: C_10  and  C_12
REMARK   13  A    between atoms: C_10  and  C_16
REMARK   14  A    between atoms: C_11  and  C_17
REMARK   15  A    between atoms: C_12  and  C_18
REMARK   16  A    between atoms: C_13  and  C_19
REMARK   17  A    between atoms: C_14  and  C_20
REMARK   18  A    between atoms: C_15  and  C_21
REMARK   19  A    between atoms: C_16  and  C_22
REMARK   20  A    between atoms: C_17  and  C_23
REMARK   21  A    between atoms: C_18  and  C_24
REMARK   22  A    between atoms: C_19  and  C_25
REMARK   23  A    between atoms: C_20  and  C_26
REMARK   24  A    between atoms: C_21  and  C_27
REMARK   25  A    between atoms: C_22  and  C_28
REMARK   26  A    between atoms: C_23  and  C_29
REMARK   27  A    between atoms: C_24  and  C_30
REMARK   28  A    between atoms: C_25  and  C_31
REMARK   29  A    between atoms: C_26  and  C_32
REMARK   30  A    between atoms: C_27  and  C_33
REMARK   31  A    between atoms: C_28  and  C_34
REMARK   32  A    between atoms: C_29  and  C_35
REMARK   33  A    between atoms: C_30  and  C_36
REMARK   34  A    between atoms: C_31  and  C_37
REMARK   35  A    between atoms: C_32  and  C_40
REMARK   36  A    between atoms: C_33  and  C_38
REMARK   37  A    between atoms: C_34  and  C_39
REMARK   38  A    between atoms: C_35  and  C_41
REMARK   39  A    between atoms: C_36  and  C_42
REMARK   40  A    between atoms: C_37  and  C_44
REMARK   41  A    between atoms: C_38  and  C_47
REMARK   42  A    between atoms: C_39  and  C_48
REMARK   43  A    between atoms: C_40  and  C_49
REMARK   44  A    between atoms: C_41  and  C_50
REMARK   45  A    between atoms: C_42  and  C_51
REMARK   46  A    between atoms: C_43  and  C_45
REMARK   47  A    between atoms: C_43  and  C_46
REMARK                            x       y       z     vdW  Elec       q    Type
REMARK                         _______ _______ _______ _____ _____    ______ ____
ROOT
ATOM      1  C   UNL     1     -24.963  13.821  24.283  0.00  0.00    +0.000 C 
ENDROOT
BRANCH   1   2
ATOM      2  C   UNL     1     -24.012  13.749  24.585  0.00  0.00    +0.000 C 
BRANCH   2   3
ATOM      3  O   UNL     1     -23.403  14.538  24.509  0.00  0.00    +0.000 OA
BRANCH   3   5
ATOM      4  O   UNL     1     -21.908  13.747  24.881  0.00  0.00    +0.000 OA
ATOM      5  C   UNL     1     -22.428  14.402  24.333  0.00  0.00    +0.000 C 
BRANCH   5   6
ATOM      6  C   UNL     1     -21.973  14.920  23.608  0.00  0.00    +0.000 C 
BRANCH   6   7
ATOM      7  C   UNL     1     -21.666  14.455  22.778  0.00  0.00    +0.000 C 
BRANCH   7   8
ATOM      8  C   UNL     1     -21.655  14.945  21.906  0.00  0.00    +0.000 C 
BRANCH   8   9
ATOM      9  C   UNL     1     -21.498  14.446  21.054  0.00  0.00    +0.000 C 
BRANCH   9  10
ATOM     10  C   UNL     1     -21.663  14.892  20.175  0.00  0.00    +0.000 C 
BRANCH  10  11
ATOM     11  C   UNL     1     -21.997  14.359  19.398  0.00  0.00    +0.000 C 
BRANCH  11  12
ATOM     12  C   UNL     1     -22.168  14.807  18.520  0.00  0.00    +0.000 C 
BRANCH  12  13
ATOM     13  C   UNL     1     -22.595  14.297  17.774  0.00  0.00    +0.000 C 
BRANCH  13  14
ATOM     14  C   UNL     1     -23.499  13.888  17.901  0.00  0.00    +0.000 C 
BRANCH  14  15
ATOM     15  C   UNL     1     -24.032  13.598  17.106  0.00  0.00    +0.000 C 
BRANCH  15  16
ATOM     16  C   UNL     1     -24.089  12.628  16.869  0.00  0.00    +0.000 C 
BRANCH  16  17
ATOM     17  C   UNL     1     -24.658  12.334  16.101  0.00  0.00    +0.000 C 
ATOM     18  C   UNL     1     -24.235  12.107  15.224  0.00  0.00    +0.000 C 
ENDBRANCH  16  17
ENDBRANCH  15  16
ENDBRANCH  14  15
ENDBRANCH  13  14
ENDBRANCH  12  13
ENDBRANCH  11  12
ENDBRANCH  10  11
ENDBRANCH   9  10
ENDBRANCH   8   9
ENDBRANCH   7   8
ENDBRANCH   6   7
ENDBRANCH   5   6
ENDBRANCH   3   5
ENDBRANCH   2   3
ENDBRANCH   1   2
BRANCH   1  19
ATOM     19  C   UNL     1     -25.481  14.658  24.457  0.00  0.00    +0.000 C 
BRANCH  19  20
ATOM     20  O   UNL     1     -26.409  14.604  24.825  0.00  0.00    +0.000 OA
BRANCH  20  22
ATOM     21  O   UNL     1     -27.017  15.986  25.674  0.00  0.00    +0.000 OA
ATOM     22  C   UNL     1     -26.986  15.421  24.850  0.00  0.00    +0.000 C 
BRANCH  22  23
ATOM     23  C   UNL     1     -27.531  15.673  24.050  0.00  0.00    +0.000 C 
BRANCH  23  24
ATOM     24  C   UNL     1     -28.402  15.214  23.874  0.00  0.00    +0.000 C 
BRANCH  24  25
ATOM     25  C   UNL     1     -28.803  15.237  22.958  0.00  0.00    +0.000 C 
BRANCH  25  26
ATOM     26  C   UNL     1     -29.006  14.382  22.480  0.00  0.00    +0.000 C 
BRANCH  26  27
ATOM     27  C   UNL     1     -29.556  14.395  21.645  0.00  0.00    +0.000 C 
BRANCH  27  28
ATOM     28  C   UNL     1     -29.130  14.190  20.763  0.00  0.00    +0.000 C 
BRANCH  28  29
ATOM     29  C   UNL     1     -29.275  13.299  20.333  0.00  0.00    +0.000 C 
BRANCH  29  30
ATOM     30  C   UNL     1     -28.699  13.014  19.567  0.00  0.00    +0.000 C 
BRANCH  30  31
ATOM     31  C   UNL     1     -28.731  13.517  18.703  0.00  0.00    +0.000 C 
BRANCH  31  32
ATOM     32  C   UNL     1     -28.101  13.280  17.963  0.00  0.00    +0.000 C 
BRANCH  32  33
ATOM     33  C   UNL     1     -27.686  14.002  17.410  0.00  0.00    +0.000 C 
BRANCH  33  34
ATOM     34  C   UNL     1     -28.015  14.172  16.481  0.00  0.00    +0.000 C 
ATOM     35  C   UNL     1     -27.439  14.664  15.828  0.00  0.00    +0.000 C 
ENDBRANCH  33  34
ENDBRANCH  32  33
ENDBRANCH  31  32
ENDBRANCH  30  31
ENDBRANCH  29  30
ENDBRANCH  28  29
ENDBRANCH  27  28
ENDBRANCH  26  27
ENDBRANCH  25  26
ENDBRANCH  24  25
ENDBRANCH  23  24
ENDBRANCH  22  23
ENDBRANCH  20  22
ENDBRANCH  19  20
ENDBRANCH   1  19
BRANCH   1  36
ATOM     36  O   UNL     1     -25.395  13.055  23.806  0.00  0.00    +0.000 OA
BRANCH  36  38
ATOM     37  O   UNL     1     -24.406  12.163  22.699  0.00  0.00    +0.000 OA
ATOM     38  C   UNL     1     -25.127  12.835  22.869  0.00  0.00    +0.000 C 
BRANCH  38  39
ATOM     39  C   UNL     1     -25.580  13.287  22.100  0.00  0.00    +0.000 C 
BRANCH  39  40
ATOM     40  C   UNL     1     -25.080  13.447  21.249  0.00  0.00    +0.000 C 
BRANCH  40  41
ATOM     41  C   UNL     1     -25.364  14.182  20.633  0.00  0.00    +0.000 C 
BRANCH  41  42
ATOM     42  C   UNL     1     -25.545  15.097  20.996  0.00  0.00    +0.000 C 
BRANCH  42  43
ATOM     43  C   UNL     1     -25.548  15.887  20.382  0.00  0.00    +0.000 C 
BRANCH  43  44
ATOM     44  C   UNL     1     -26.346  16.072  19.809  0.00  0.00    +0.000 C 
BRANCH  44  45
ATOM     45  C   UNL     1     -26.840  16.936  19.904  0.00  0.00    +0.000 C 
BRANCH  45  46
ATOM     46  C   UNL     1     -27.477  17.229  19.191  0.00  0.00    +0.000 C 
BRANCH  46  47
ATOM     47  C   UNL     1     -28.457  17.273  19.384  0.00  0.00    +0.000 C 
BRANCH  47  48
ATOM     48  C   UNL     1     -29.117  17.230  18.633  0.00  0.00    +0.000 C 
BRANCH  48  49
ATOM     49  C   UNL     1     -30.079  17.038  18.824  0.00  0.00    +0.000 C 
BRANCH  49  50
ATOM     50  C   UNL     1     -30.630  16.533  18.158  0.00  0.00    +0.000 C 
ATOM     51  C   UNL     1     -31.168  17.028  17.477  0.00  0.00    +0.000 C 
ENDBRANCH  49  50
ENDBRANCH  48  49
ENDBRANCH  47  48
ENDBRANCH  46  47
ENDBRANCH  45  46
ENDBRANCH  44  45
ENDBRANCH  43  44
ENDBRANCH  42  43
ENDBRANCH  41  42
ENDBRANCH  40  41
ENDBRANCH  39  40
ENDBRANCH  38  39
ENDBRANCH  36  38
ENDBRANCH   1  36
TORSDOF 44
ENDMDL
