MODEL 1
REMARK VINA RESULT:    -5.295      0.000      0.000
REMARK INTER + INTRA:          -5.295
REMARK INTER:                  -5.295
REMARK INTRA:                   0.000
REMARK UNBOUND:                 0.000
REMARK  Name = ./IMPHY000009_3D.pdb
REMARK  2 active torsions:
REMARK  status: ('A' for Active; 'I' for Inactive)
REMARK    1  A    between atoms: C_3  and  C_11
REMARK    2  A    between atoms: C_4  and  C_12
REMARK                            x       y       z     vdW  Elec       q    Type
REMARK                         _______ _______ _______ _____ _____    ______ ____
ROOT
ATOM      1  C   UNL     1     -27.367  12.150   9.177  0.00  0.00    +0.000 A 
ATOM      2  C   UNL     1     -27.403  12.479  10.553  0.00  0.00    +0.000 A 
ATOM      3  C   UNL     1     -27.216  10.807   8.796  0.00  0.00    +0.000 A 
ATOM      4  C   UNL     1     -27.553  13.823  10.934  0.00  0.00    +0.000 A 
ATOM      5  C   UNL     1     -27.481  13.174   8.223  0.00  0.00    +0.000 A 
ATOM      6  C   UNL     1     -27.288  11.456  11.508  0.00  0.00    +0.000 A 
ATOM      7  C   UNL     1     -27.104   9.802   9.758  0.00  0.00    +0.000 A 
ATOM      8  C   UNL     1     -27.665  14.827   9.973  0.00  0.00    +0.000 A 
ATOM      9  C   UNL     1     -27.630  14.504   8.619  0.00  0.00    +0.000 A 
ATOM     10  C   UNL     1     -27.139  10.126  11.111  0.00  0.00    +0.000 A 
ATOM     11  C   UNL     1     -27.170  10.389   7.359  0.00  0.00    +0.000 C 
ATOM     12  C   UNL     1     -27.598  14.240  12.371  0.00  0.00    +0.000 C 
ENDROOT
TORSDOF 0
ENDMDL
MODEL 2
REMARK VINA RESULT:    -5.278      0.042      4.489
REMARK INTER + INTRA:          -5.278
REMARK INTER:                  -5.278
REMARK INTRA:                   0.000
REMARK UNBOUND:                 0.000
REMARK  Name = ./IMPHY000009_3D.pdb
REMARK  2 active torsions:
REMARK  status: ('A' for Active; 'I' for Inactive)
REMARK    1  A    between atoms: C_3  and  C_11
REMARK    2  A    between atoms: C_4  and  C_12
REMARK                            x       y       z     vdW  Elec       q    Type
REMARK                         _______ _______ _______ _____ _____    ______ ____
ROOT
ATOM      1  C   UNL     1     -27.415  12.452  10.573  0.00  0.00    +0.000 A 
ATOM      2  C   UNL     1     -27.357  12.121   9.198  0.00  0.00    +0.000 A 
ATOM      3  C   UNL     1     -27.569  13.796  10.950  0.00  0.00    +0.000 A 
ATOM      4  C   UNL     1     -27.203  10.777   8.821  0.00  0.00    +0.000 A 
ATOM      5  C   UNL     1     -27.317  11.429  11.530  0.00  0.00    +0.000 A 
ATOM      6  C   UNL     1     -27.454  13.144   8.241  0.00  0.00    +0.000 A 
ATOM      7  C   UNL     1     -27.664  14.800   9.986  0.00  0.00    +0.000 A 
ATOM      8  C   UNL     1     -27.108   9.773   9.785  0.00  0.00    +0.000 A 
ATOM      9  C   UNL     1     -27.165  10.099  11.138  0.00  0.00    +0.000 A 
ATOM     10  C   UNL     1     -27.607  14.474   8.633  0.00  0.00    +0.000 A 
ATOM     11  C   UNL     1     -27.637  14.216  12.386  0.00  0.00    +0.000 C 
ATOM     12  C   UNL     1     -27.133  10.358   7.386  0.00  0.00    +0.000 C 
ENDROOT
TORSDOF 0
ENDMDL
MODEL 3
REMARK VINA RESULT:    -5.139      0.773      3.537
REMARK INTER + INTRA:          -5.139
REMARK INTER:                  -5.139
REMARK INTRA:                   0.000
REMARK UNBOUND:                 0.000
REMARK  Name = ./IMPHY000009_3D.pdb
REMARK  2 active torsions:
REMARK  status: ('A' for Active; 'I' for Inactive)
REMARK    1  A    between atoms: C_3  and  C_11
REMARK    2  A    between atoms: C_4  and  C_12
REMARK                            x       y       z     vdW  Elec       q    Type
REMARK                         _______ _______ _______ _____ _____    ______ ____
ROOT
ATOM      1  C   UNL     1     -27.390  12.501   9.287  0.00  0.00    +0.000 A 
ATOM      2  C   UNL     1     -27.262  11.804  10.512  0.00  0.00    +0.000 A 
ATOM      3  C   UNL     1     -27.563  13.895   9.305  0.00  0.00    +0.000 A 
ATOM      4  C   UNL     1     -27.089  10.411  10.494  0.00  0.00    +0.000 A 
ATOM      5  C   UNL     1     -27.342  11.785   8.080  0.00  0.00    +0.000 A 
ATOM      6  C   UNL     1     -27.310  12.521  11.719  0.00  0.00    +0.000 A 
ATOM      7  C   UNL     1     -27.609  14.591  10.513  0.00  0.00    +0.000 A 
ATOM      8  C   UNL     1     -27.044   9.714   9.286  0.00  0.00    +0.000 A 
ATOM      9  C   UNL     1     -27.170  10.400   8.081  0.00  0.00    +0.000 A 
ATOM     10  C   UNL     1     -27.482  13.906  11.718  0.00  0.00    +0.000 A 
ATOM     11  C   UNL     1     -27.706  14.694   8.047  0.00  0.00    +0.000 C 
ATOM     12  C   UNL     1     -26.948   9.612  11.752  0.00  0.00    +0.000 C 
ENDROOT
TORSDOF 0
ENDMDL
MODEL 4
REMARK VINA RESULT:    -5.136      0.775      2.777
REMARK INTER + INTRA:          -5.136
REMARK INTER:                  -5.136
REMARK INTRA:                   0.000
REMARK UNBOUND:                 0.000
REMARK  Name = ./IMPHY000009_3D.pdb
REMARK  2 active torsions:
REMARK  status: ('A' for Active; 'I' for Inactive)
REMARK    1  A    between atoms: C_3  and  C_11
REMARK    2  A    between atoms: C_4  and  C_12
REMARK                            x       y       z     vdW  Elec       q    Type
REMARK                         _______ _______ _______ _____ _____    ______ ____
ROOT
ATOM      1  C   UNL     1     -27.267  11.783  10.534  0.00  0.00    +0.000 A 
ATOM      2  C   UNL     1     -27.403  12.481   9.309  0.00  0.00    +0.000 A 
ATOM      3  C   UNL     1     -27.092  10.390  10.515  0.00  0.00    +0.000 A 
ATOM      4  C   UNL     1     -27.577  13.874   9.329  0.00  0.00    +0.000 A 
ATOM      5  C   UNL     1     -27.309  12.500  11.741  0.00  0.00    +0.000 A 
ATOM      6  C   UNL     1     -27.360  11.765   8.103  0.00  0.00    +0.000 A 
ATOM      7  C   UNL     1     -27.053   9.694   9.306  0.00  0.00    +0.000 A 
ATOM      8  C   UNL     1     -27.616  14.570  10.538  0.00  0.00    +0.000 A 
ATOM      9  C   UNL     1     -27.483  13.884  11.741  0.00  0.00    +0.000 A 
ATOM     10  C   UNL     1     -27.187  10.380   8.102  0.00  0.00    +0.000 A 
ATOM     11  C   UNL     1     -26.942   9.590  11.772  0.00  0.00    +0.000 C 
ATOM     12  C   UNL     1     -27.728  14.673   8.072  0.00  0.00    +0.000 C 
ENDROOT
TORSDOF 0
ENDMDL
MODEL 5
REMARK VINA RESULT:    -5.113      0.853      3.444
REMARK INTER + INTRA:          -5.113
REMARK INTER:                  -5.113
REMARK INTRA:                   0.000
REMARK UNBOUND:                 0.000
REMARK  Name = ./IMPHY000009_3D.pdb
REMARK  2 active torsions:
REMARK  status: ('A' for Active; 'I' for Inactive)
REMARK    1  A    between atoms: C_3  and  C_11
REMARK    2  A    between atoms: C_4  and  C_12
REMARK                            x       y       z     vdW  Elec       q    Type
REMARK                         _______ _______ _______ _____ _____    ______ ____
ROOT
ATOM      1  C   UNL     1     -27.456  13.452  11.014  0.00  0.00    +0.000 A 
ATOM      2  C   UNL     1     -27.366  12.304  10.190  0.00  0.00    +0.000 A 
ATOM      3  C   UNL     1     -27.432  13.297  12.410  0.00  0.00    +0.000 A 
ATOM      4  C   UNL     1     -27.391  12.458   8.794  0.00  0.00    +0.000 A 
ATOM      5  C   UNL     1     -27.568  14.718  10.419  0.00  0.00    +0.000 A 
ATOM      6  C   UNL     1     -27.254  11.037  10.785  0.00  0.00    +0.000 A 
ATOM      7  C   UNL     1     -27.320  12.031  12.985  0.00  0.00    +0.000 A 
ATOM      8  C   UNL     1     -27.502  13.724   8.219  0.00  0.00    +0.000 A 
ATOM      9  C   UNL     1     -27.591  14.853   9.030  0.00  0.00    +0.000 A 
ATOM     10  C   UNL     1     -27.232  10.903  12.174  0.00  0.00    +0.000 A 
ATOM     11  C   UNL     1     -27.523  14.468  13.340  0.00  0.00    +0.000 C 
ATOM     12  C   UNL     1     -27.300  11.288   7.865  0.00  0.00    +0.000 C 
ENDROOT
TORSDOF 0
ENDMDL
MODEL 6
REMARK VINA RESULT:    -5.079      0.847      3.155
REMARK INTER + INTRA:          -5.079
REMARK INTER:                  -5.079
REMARK INTRA:                   0.000
REMARK UNBOUND:                 0.000
REMARK  Name = ./IMPHY000009_3D.pdb
REMARK  2 active torsions:
REMARK  status: ('A' for Active; 'I' for Inactive)
REMARK    1  A    between atoms: C_3  and  C_11
REMARK    2  A    between atoms: C_4  and  C_12
REMARK                            x       y       z     vdW  Elec       q    Type
REMARK                         _______ _______ _______ _____ _____    ______ ____
ROOT
ATOM      1  C   UNL     1     -27.385  12.191  10.230  0.00  0.00    +0.000 A 
ATOM      2  C   UNL     1     -27.456  13.343  11.049  0.00  0.00    +0.000 A 
ATOM      3  C   UNL     1     -27.428  12.338   8.834  0.00  0.00    +0.000 A 
ATOM      4  C   UNL     1     -27.414  13.196  12.445  0.00  0.00    +0.000 A 
ATOM      5  C   UNL     1     -27.275  10.927  10.831  0.00  0.00    +0.000 A 
ATOM      6  C   UNL     1     -27.567  14.608  10.449  0.00  0.00    +0.000 A 
ATOM      7  C   UNL     1     -27.538  13.602   8.254  0.00  0.00    +0.000 A 
ATOM      8  C   UNL     1     -27.304  11.932  13.026  0.00  0.00    +0.000 A 
ATOM      9  C   UNL     1     -27.234  10.799  12.220  0.00  0.00    +0.000 A 
ATOM     10  C   UNL     1     -27.607  14.735   9.060  0.00  0.00    +0.000 A 
ATOM     11  C   UNL     1     -27.357  11.162   7.909  0.00  0.00    +0.000 C 
ATOM     12  C   UNL     1     -27.485  14.372  13.370  0.00  0.00    +0.000 C 
ENDROOT
TORSDOF 0
ENDMDL
MODEL 7
REMARK VINA RESULT:    -5.053      0.995      3.594
REMARK INTER + INTRA:          -5.053
REMARK INTER:                  -5.053
REMARK INTRA:                   0.000
REMARK UNBOUND:                 0.000
REMARK  Name = ./IMPHY000009_3D.pdb
REMARK  2 active torsions:
REMARK  status: ('A' for Active; 'I' for Inactive)
REMARK    1  A    between atoms: C_3  and  C_11
REMARK    2  A    between atoms: C_4  and  C_12
REMARK                            x       y       z     vdW  Elec       q    Type
REMARK                         _______ _______ _______ _____ _____    ______ ____
ROOT
ATOM      1  C   UNL     1     -27.463  13.704  10.586  0.00  0.00    +0.000 A 
ATOM      2  C   UNL     1     -27.350  12.296  10.669  0.00  0.00    +0.000 A 
ATOM      3  C   UNL     1     -27.597  14.308   9.325  0.00  0.00    +0.000 A 
ATOM      4  C   UNL     1     -27.217  11.692  11.930  0.00  0.00    +0.000 A 
ATOM      5  C   UNL     1     -27.440  14.467  11.765  0.00  0.00    +0.000 A 
ATOM      6  C   UNL     1     -27.374  11.533   9.490  0.00  0.00    +0.000 A 
ATOM      7  C   UNL     1     -27.619  13.536   8.163  0.00  0.00    +0.000 A 
ATOM      8  C   UNL     1     -27.195  12.464  13.092  0.00  0.00    +0.000 A 
ATOM      9  C   UNL     1     -27.307  13.849  13.009  0.00  0.00    +0.000 A 
ATOM     10  C   UNL     1     -27.507  12.151   8.246  0.00  0.00    +0.000 A 
ATOM     11  C   UNL     1     -27.721  15.792   9.164  0.00  0.00    +0.000 C 
ATOM     12  C   UNL     1     -27.091  10.208  12.090  0.00  0.00    +0.000 C 
ENDROOT
TORSDOF 0
ENDMDL
MODEL 8
REMARK VINA RESULT:    -5.009      0.995      3.113
REMARK INTER + INTRA:          -5.009
REMARK INTER:                  -5.009
REMARK INTRA:                   0.000
REMARK UNBOUND:                 0.000
REMARK  Name = ./IMPHY000009_3D.pdb
REMARK  2 active torsions:
REMARK  status: ('A' for Active; 'I' for Inactive)
REMARK    1  A    between atoms: C_3  and  C_11
REMARK    2  A    between atoms: C_4  and  C_12
REMARK                            x       y       z     vdW  Elec       q    Type
REMARK                         _______ _______ _______ _____ _____    ______ ____
ROOT
ATOM      1  C   UNL     1     -27.339  12.199  10.788  0.00  0.00    +0.000 A 
ATOM      2  C   UNL     1     -27.462  13.604  10.661  0.00  0.00    +0.000 A 
ATOM      3  C   UNL     1     -27.226  11.634  12.069  0.00  0.00    +0.000 A 
ATOM      4  C   UNL     1     -27.575  14.169   9.380  0.00  0.00    +0.000 A 
ATOM      5  C   UNL     1     -27.335  11.402   9.633  0.00  0.00    +0.000 A 
ATOM      6  C   UNL     1     -27.466  14.401  11.816  0.00  0.00    +0.000 A 
ATOM      7  C   UNL     1     -27.232  12.441  13.207  0.00  0.00    +0.000 A 
ATOM      8  C   UNL     1     -27.569  13.362   8.242  0.00  0.00    +0.000 A 
ATOM      9  C   UNL     1     -27.449  11.981   8.368  0.00  0.00    +0.000 A 
ATOM     10  C   UNL     1     -27.352  13.822  13.081  0.00  0.00    +0.000 A 
ATOM     11  C   UNL     1     -27.093  10.157  12.277  0.00  0.00    +0.000 C 
ATOM     12  C   UNL     1     -27.707  15.646   9.173  0.00  0.00    +0.000 C 
ENDROOT
TORSDOF 0
ENDMDL
MODEL 9
REMARK VINA RESULT:    -4.728      1.352      4.009
REMARK INTER + INTRA:          -4.728
REMARK INTER:                  -4.728
REMARK INTRA:                   0.000
REMARK UNBOUND:                 0.000
REMARK  Name = ./IMPHY000009_3D.pdb
REMARK  2 active torsions:
REMARK  status: ('A' for Active; 'I' for Inactive)
REMARK    1  A    between atoms: C_3  and  C_11
REMARK    2  A    between atoms: C_4  and  C_12
REMARK                            x       y       z     vdW  Elec       q    Type
REMARK                         _______ _______ _______ _____ _____    ______ ____
ROOT
ATOM      1  C   UNL     1     -28.201  14.308  10.729  0.00  0.00    +0.000 A 
ATOM      2  C   UNL     1     -27.633  13.017  10.608  0.00  0.00    +0.000 A 
ATOM      3  C   UNL     1     -28.382  15.088   9.575  0.00  0.00    +0.000 A 
ATOM      4  C   UNL     1     -27.452  12.237  11.762  0.00  0.00    +0.000 A 
ATOM      5  C   UNL     1     -28.570  14.781  11.998  0.00  0.00    +0.000 A 
ATOM      6  C   UNL     1     -27.264  12.544   9.339  0.00  0.00    +0.000 A 
ATOM      7  C   UNL     1     -28.009  14.603   8.321  0.00  0.00    +0.000 A 
ATOM      8  C   UNL     1     -27.825  12.722  13.016  0.00  0.00    +0.000 A 
ATOM      9  C   UNL     1     -28.383  13.992  13.134  0.00  0.00    +0.000 A 
ATOM     10  C   UNL     1     -27.451  13.333   8.203  0.00  0.00    +0.000 A 
ATOM     11  C   UNL     1     -28.976  16.462   9.630  0.00  0.00    +0.000 C 
ATOM     12  C   UNL     1     -26.857  10.864  11.706  0.00  0.00    +0.000 C 
ENDROOT
TORSDOF 0
ENDMDL
