MODEL 1
REMARK VINA RESULT:    -5.770      0.000      0.000
REMARK INTER + INTRA:          -7.264
REMARK INTER:                  -6.951
REMARK INTRA:                  -0.313
REMARK UNBOUND:                -0.313
REMARK  Name = ./IMPHY000007_3D.pdb
REMARK  7 active torsions:
REMARK  status: ('A' for Active; 'I' for Inactive)
REMARK    1  A    between atoms: O_1  and  C_14
REMARK    2  A    between atoms: O_1  and  C_22
REMARK    3  A    between atoms: O_2  and  C_12
REMARK    4  A    between atoms: O_3  and  C_20
REMARK    5  A    between atoms: O_3  and  C_23
REMARK    6  A    between atoms: O_4  and  C_21
REMARK    7  A    between atoms: O_4  and  C_24
REMARK                            x       y       z     vdW  Elec       q    Type
REMARK                         _______ _______ _______ _____ _____    ______ ____
ROOT
ATOM      1  N   UNL     1     -19.505   4.573   3.453  0.00  0.00    +0.000 NA
ATOM      2  C   UNL     1     -18.071   4.178   3.521  0.00  0.00    +0.000 C 
ATOM      3  C   UNL     1     -17.280   5.250   4.309  0.00  0.00    +0.000 C 
ATOM      4  C   UNL     1     -18.188   2.930   4.379  0.00  0.00    +0.000 C 
ATOM      5  C   UNL     1     -17.468   3.911   2.126  0.00  0.00    +0.000 A 
ATOM      6  C   UNL     1     -19.853   5.525   2.415  0.00  0.00    +0.000 C 
ATOM      7  C   UNL     1     -20.295   3.331   3.514  0.00  0.00    +0.000 C 
ATOM      8  C   UNL     1     -19.439   5.098   1.011  0.00  0.00    +0.000 C 
ATOM      9  C   UNL     1     -18.106   4.388   0.960  0.00  0.00    +0.000 A 
ATOM     10  C   UNL     1     -15.967   4.720   4.925  0.00  0.00    +0.000 C 
ATOM     11  C   UNL     1     -19.424   2.420   4.319  0.00  0.00    +0.000 C 
ATOM     12  C   UNL     1     -17.123   2.517   5.250  0.00  0.00    +0.000 C 
ATOM     13  C   UNL     1     -16.090   3.335   5.507  0.00  0.00    +0.000 C 
ATOM     14  C   UNL     1     -16.259   3.208   1.964  0.00  0.00    +0.000 A 
ATOM     15  C   UNL     1     -17.522   4.176  -0.304  0.00  0.00    +0.000 A 
ATOM     16  C   UNL     1     -15.691   3.000   0.706  0.00  0.00    +0.000 A 
ATOM     17  C   UNL     1     -16.320   3.488  -0.431  0.00  0.00    +0.000 A 
ENDROOT
BRANCH  10  18
ATOM     18  O   UNL     1     -15.559   5.609   5.965  0.00  0.00    +0.000 OA
ATOM     19  C   UNL     1     -14.523   5.044   6.753  0.00  0.00    +0.000 C 
ENDBRANCH  10  18
BRANCH   8  20
ATOM     20  O   UNL     1     -20.485   4.304   0.448  0.00  0.00    +0.000 OA
ATOM     21  H   UNL     1     -20.534   3.477   0.958  0.00  0.00    +0.000 HD
ENDBRANCH   8  20
BRANCH  16  22
ATOM     22  O   UNL     1     -14.511   2.325   0.610  0.00  0.00    +0.000 OA
ATOM     23  C   UNL     1     -13.341   2.993   1.079  0.00  0.00    +0.000 C 
ENDBRANCH  16  22
BRANCH  17  24
ATOM     24  O   UNL     1     -15.780   3.298  -1.663  0.00  0.00    +0.000 OA
ATOM     25  C   UNL     1     -16.361   2.280  -2.476  0.00  0.00    +0.000 C 
ENDBRANCH  17  24
TORSDOF 4
ENDMDL
MODEL 2
REMARK VINA RESULT:    -5.420     12.084     14.864
REMARK INTER + INTRA:          -6.842
REMARK INTER:                  -6.452
REMARK INTRA:                  -0.389
REMARK UNBOUND:                -0.313
REMARK  Name = ./IMPHY000007_3D.pdb
REMARK  7 active torsions:
REMARK  status: ('A' for Active; 'I' for Inactive)
REMARK    1  A    between atoms: O_1  and  C_14
REMARK    2  A    between atoms: O_1  and  C_22
REMARK    3  A    between atoms: O_2  and  C_12
REMARK    4  A    between atoms: O_3  and  C_20
REMARK    5  A    between atoms: O_3  and  C_23
REMARK    6  A    between atoms: O_4  and  C_21
REMARK    7  A    between atoms: O_4  and  C_24
REMARK                            x       y       z     vdW  Elec       q    Type
REMARK                         _______ _______ _______ _____ _____    ______ ____
ROOT
ATOM      1  N   UNL     1     -27.896  10.533   7.326  0.00  0.00    +0.000 NA
ATOM      2  C   UNL     1     -27.818  11.167   8.671  0.00  0.00    +0.000 C 
ATOM      3  C   UNL     1     -27.275  12.610   8.527  0.00  0.00    +0.000 C 
ATOM      4  C   UNL     1     -29.297  11.237   9.009  0.00  0.00    +0.000 C 
ATOM      5  C   UNL     1     -26.996  10.328   9.671  0.00  0.00    +0.000 A 
ATOM      6  C   UNL     1     -26.660   9.966   6.819  0.00  0.00    +0.000 C 
ATOM      7  C   UNL     1     -29.080   9.657   7.334  0.00  0.00    +0.000 C 
ATOM      8  C   UNL     1     -26.006   8.955   7.755  0.00  0.00    +0.000 C 
ATOM      9  C   UNL     1     -26.119   9.319   9.217  0.00  0.00    +0.000 A 
ATOM     10  C   UNL     1     -27.663  13.537   9.699  0.00  0.00    +0.000 C 
ATOM     11  C   UNL     1     -29.994  10.339   8.302  0.00  0.00    +0.000 C 
ATOM     12  C   UNL     1     -29.825  12.273   9.852  0.00  0.00    +0.000 C 
ATOM     13  C   UNL     1     -29.078  13.339  10.180  0.00  0.00    +0.000 C 
ATOM     14  C   UNL     1     -27.072  10.548  11.060  0.00  0.00    +0.000 A 
ATOM     15  C   UNL     1     -25.341   8.590  10.138  0.00  0.00    +0.000 A 
ATOM     16  C   UNL     1     -26.300   9.815  11.964  0.00  0.00    +0.000 A 
ATOM     17  C   UNL     1     -25.430   8.838  11.504  0.00  0.00    +0.000 A 
ENDROOT
BRANCH  10  18
ATOM     18  O   UNL     1     -27.518  14.893   9.276  0.00  0.00    +0.000 OA
ATOM     19  C   UNL     1     -28.069  15.094   7.984  0.00  0.00    +0.000 C 
ENDBRANCH  10  18
BRANCH   8  20
ATOM     20  O   UNL     1     -26.554   7.663   7.486  0.00  0.00    +0.000 OA
ATOM     21  H   UNL     1     -25.963   7.217   6.856  0.00  0.00    +0.000 HD
ENDBRANCH   8  20
BRANCH  16  22
ATOM     22  O   UNL     1     -26.404  10.080  13.297  0.00  0.00    +0.000 OA
ATOM     23  C   UNL     1     -25.720  11.234  13.784  0.00  0.00    +0.000 C 
ENDBRANCH  16  22
BRANCH  17  24
ATOM     24  O   UNL     1     -24.667   8.118  12.369  0.00  0.00    +0.000 OA
ATOM     25  C   UNL     1     -23.309   8.525  12.528  0.00  0.00    +0.000 C 
ENDBRANCH  17  24
TORSDOF 4
ENDMDL
MODEL 3
REMARK VINA RESULT:    -5.324     12.555     15.186
REMARK INTER + INTRA:          -6.726
REMARK INTER:                  -6.349
REMARK INTRA:                  -0.377
REMARK UNBOUND:                -0.313
REMARK  Name = ./IMPHY000007_3D.pdb
REMARK  7 active torsions:
REMARK  status: ('A' for Active; 'I' for Inactive)
REMARK    1  A    between atoms: O_1  and  C_14
REMARK    2  A    between atoms: O_1  and  C_22
REMARK    3  A    between atoms: O_2  and  C_12
REMARK    4  A    between atoms: O_3  and  C_20
REMARK    5  A    between atoms: O_3  and  C_23
REMARK    6  A    between atoms: O_4  and  C_21
REMARK    7  A    between atoms: O_4  and  C_24
REMARK                            x       y       z     vdW  Elec       q    Type
REMARK                         _______ _______ _______ _____ _____    ______ ____
ROOT
ATOM      1  N   UNL     1     -26.851   8.424   9.128  0.00  0.00    +0.000 NA
ATOM      2  C   UNL     1     -27.225   9.339  10.242  0.00  0.00    +0.000 C 
ATOM      3  C   UNL     1     -28.550   8.856  10.880  0.00  0.00    +0.000 C 
ATOM      4  C   UNL     1     -26.088   9.051  11.206  0.00  0.00    +0.000 C 
ATOM      5  C   UNL     1     -27.294  10.814   9.793  0.00  0.00    +0.000 A 
ATOM      6  C   UNL     1     -27.501   8.674   7.855  0.00  0.00    +0.000 C 
ATOM      7  C   UNL     1     -25.381   8.335   9.123  0.00  0.00    +0.000 C 
ATOM      8  C   UNL     1     -27.336  10.099   7.339  0.00  0.00    +0.000 C 
ATOM      9  C   UNL     1     -27.387  11.149   8.425  0.00  0.00    +0.000 A 
ATOM     10  C   UNL     1     -28.749   9.339  12.333  0.00  0.00    +0.000 C 
ATOM     11  C   UNL     1     -25.028   8.548  10.561  0.00  0.00    +0.000 C 
ATOM     12  C   UNL     1     -26.263   9.162  12.627  0.00  0.00    +0.000 C 
ATOM     13  C   UNL     1     -27.488   9.299  13.159  0.00  0.00    +0.000 C 
ATOM     14  C   UNL     1     -27.289  11.872  10.723  0.00  0.00    +0.000 A 
ATOM     15  C   UNL     1     -27.494  12.497   8.031  0.00  0.00    +0.000 A 
ATOM     16  C   UNL     1     -27.390  13.205  10.321  0.00  0.00    +0.000 A 
ATOM     17  C   UNL     1     -27.498  13.520   8.974  0.00  0.00    +0.000 A 
ENDROOT
BRANCH  10  18
ATOM     18  O   UNL     1     -29.724   8.508  12.962  0.00  0.00    +0.000 OA
ATOM     19  C   UNL     1     -29.503   7.137  12.667  0.00  0.00    +0.000 C 
ENDBRANCH  10  18
BRANCH   8  20
ATOM     20  O   UNL     1     -26.124  10.174   6.585  0.00  0.00    +0.000 OA
ATOM     21  H   UNL     1     -26.161  10.985   6.049  0.00  0.00    +0.000 HD
ENDBRANCH   8  20
BRANCH  16  22
ATOM     22  O   UNL     1     -27.395  14.188  11.266  0.00  0.00    +0.000 OA
ATOM     23  C   UNL     1     -28.628  14.436  11.938  0.00  0.00    +0.000 C 
ENDBRANCH  16  22
BRANCH  17  24
ATOM     24  O   UNL     1     -27.601  14.812   8.565  0.00  0.00    +0.000 OA
ATOM     25  C   UNL     1     -28.836  15.205   7.969  0.00  0.00    +0.000 C 
ENDBRANCH  17  24
TORSDOF 4
ENDMDL
MODEL 4
REMARK VINA RESULT:    -5.096      1.833      5.439
REMARK INTER + INTRA:          -6.451
REMARK INTER:                  -6.094
REMARK INTRA:                  -0.357
REMARK UNBOUND:                -0.313
REMARK  Name = ./IMPHY000007_3D.pdb
REMARK  7 active torsions:
REMARK  status: ('A' for Active; 'I' for Inactive)
REMARK    1  A    between atoms: O_1  and  C_14
REMARK    2  A    between atoms: O_1  and  C_22
REMARK    3  A    between atoms: O_2  and  C_12
REMARK    4  A    between atoms: O_3  and  C_20
REMARK    5  A    between atoms: O_3  and  C_23
REMARK    6  A    between atoms: O_4  and  C_21
REMARK    7  A    between atoms: O_4  and  C_24
REMARK                            x       y       z     vdW  Elec       q    Type
REMARK                         _______ _______ _______ _____ _____    ______ ____
ROOT
ATOM      1  N   UNL     1     -20.368   2.700   1.966  0.00  0.00    +0.000 NA
ATOM      2  C   UNL     1     -18.978   3.225   1.870  0.00  0.00    +0.000 C 
ATOM      3  C   UNL     1     -18.173   2.366   0.865  0.00  0.00    +0.000 C 
ATOM      4  C   UNL     1     -19.256   4.579   1.240  0.00  0.00    +0.000 C 
ATOM      5  C   UNL     1     -18.288   3.316   3.247  0.00  0.00    +0.000 A 
ATOM      6  C   UNL     1     -20.561   1.568   2.852  0.00  0.00    +0.000 C 
ATOM      7  C   UNL     1     -21.252   3.862   2.164  0.00  0.00    +0.000 C 
ATOM      8  C   UNL     1     -20.069   1.799   4.277  0.00  0.00    +0.000 C 
ATOM      9  C   UNL     1     -18.794   2.606   4.357  0.00  0.00    +0.000 A 
ATOM     10  C   UNL     1     -16.957   3.100   0.260  0.00  0.00    +0.000 C 
ATOM     11  C   UNL     1     -20.518   4.963   1.465  0.00  0.00    +0.000 C 
ATOM     12  C   UNL     1     -18.297   5.217   0.382  0.00  0.00    +0.000 C 
ATOM     13  C   UNL     1     -17.229   4.544  -0.075  0.00  0.00    +0.000 C 
ATOM     14  C   UNL     1     -17.126   4.087   3.443  0.00  0.00    +0.000 A 
ATOM     15  C   UNL     1     -18.129   2.663   5.598  0.00  0.00    +0.000 A 
ATOM     16  C   UNL     1     -16.478   4.141   4.679  0.00  0.00    +0.000 A 
ATOM     17  C   UNL     1     -16.976   3.424   5.757  0.00  0.00    +0.000 A 
ENDROOT
BRANCH  10  18
ATOM     18  O   UNL     1     -16.567   2.427  -0.937  0.00  0.00    +0.000 OA
ATOM     19  C   UNL     1     -17.694   1.940  -1.648  0.00  0.00    +0.000 C 
ENDBRANCH  10  18
BRANCH   8  20
ATOM     20  O   UNL     1     -21.125   2.399   5.032  0.00  0.00    +0.000 OA
ATOM     21  H   UNL     1     -20.893   3.333   5.170  0.00  0.00    +0.000 HD
ENDBRANCH   8  20
BRANCH  16  22
ATOM     22  O   UNL     1     -15.348   4.892   4.808  0.00  0.00    +0.000 OA
ATOM     23  C   UNL     1     -14.130   4.318   4.337  0.00  0.00    +0.000 C 
ENDBRANCH  16  22
BRANCH  17  24
ATOM     24  O   UNL     1     -16.356   3.460   6.966  0.00  0.00    +0.000 OA
ATOM     25  C   UNL     1     -16.977   4.236   7.990  0.00  0.00    +0.000 C 
ENDBRANCH  17  24
TORSDOF 4
ENDMDL
MODEL 5
REMARK VINA RESULT:    -5.075      1.961      5.204
REMARK INTER + INTRA:          -6.426
REMARK INTER:                  -6.123
REMARK INTRA:                  -0.303
REMARK UNBOUND:                -0.313
REMARK  Name = ./IMPHY000007_3D.pdb
REMARK  7 active torsions:
REMARK  status: ('A' for Active; 'I' for Inactive)
REMARK    1  A    between atoms: O_1  and  C_14
REMARK    2  A    between atoms: O_1  and  C_22
REMARK    3  A    between atoms: O_2  and  C_12
REMARK    4  A    between atoms: O_3  and  C_20
REMARK    5  A    between atoms: O_3  and  C_23
REMARK    6  A    between atoms: O_4  and  C_21
REMARK    7  A    between atoms: O_4  and  C_24
REMARK                            x       y       z     vdW  Elec       q    Type
REMARK                         _______ _______ _______ _____ _____    ______ ____
ROOT
ATOM      1  N   UNL     1     -18.927   3.909   1.641  0.00  0.00    +0.000 NA
ATOM      2  C   UNL     1     -17.655   3.301   1.164  0.00  0.00    +0.000 C 
ATOM      3  C   UNL     1     -17.892   1.806   0.836  0.00  0.00    +0.000 C 
ATOM      4  C   UNL     1     -17.477   4.062  -0.138  0.00  0.00    +0.000 C 
ATOM      5  C   UNL     1     -16.495   3.505   2.160  0.00  0.00    +0.000 A 
ATOM      6  C   UNL     1     -19.245   3.701   3.042  0.00  0.00    +0.000 C 
ATOM      7  C   UNL     1     -18.948   5.298   1.150  0.00  0.00    +0.000 C 
ATOM      8  C   UNL     1     -18.147   4.143   4.003  0.00  0.00    +0.000 C 
ATOM      9  C   UNL     1     -16.749   3.862   3.503  0.00  0.00    +0.000 A 
ATOM     10  C   UNL     1     -16.868   1.222  -0.162  0.00  0.00    +0.000 C 
ATOM     11  C   UNL     1     -18.154   5.216  -0.115  0.00  0.00    +0.000 C 
ATOM     12  C   UNL     1     -16.804   3.475  -1.264  0.00  0.00    +0.000 C 
ATOM     13  C   UNL     1     -16.515   2.164  -1.284  0.00  0.00    +0.000 C 
ATOM     14  C   UNL     1     -15.151   3.324   1.779  0.00  0.00    +0.000 A 
ATOM     15  C   UNL     1     -15.684   4.002   4.413  0.00  0.00    +0.000 A 
ATOM     16  C   UNL     1     -14.102   3.471   2.689  0.00  0.00    +0.000 A 
ATOM     17  C   UNL     1     -14.367   3.806   4.009  0.00  0.00    +0.000 A 
ENDROOT
BRANCH  10  18
ATOM     18  O   UNL     1     -17.412   0.031  -0.730  0.00  0.00    +0.000 OA
ATOM     19  C   UNL     1     -18.787  -0.114  -0.408  0.00  0.00    +0.000 C 
ENDBRANCH  10  18
BRANCH   8  20
ATOM     20  O   UNL     1     -18.334   5.528   4.304  0.00  0.00    +0.000 OA
ATOM     21  H   UNL     1     -19.227   5.630   4.677  0.00  0.00    +0.000 HD
ENDBRANCH   8  20
BRANCH  16  22
ATOM     22  O   UNL     1     -12.821   3.271   2.269  0.00  0.00    +0.000 OA
ATOM     23  C   UNL     1     -12.646   2.673   0.986  0.00  0.00    +0.000 C 
ENDBRANCH  16  22
BRANCH  17  24
ATOM     24  O   UNL     1     -13.360   3.949   4.910  0.00  0.00    +0.000 OA
ATOM     25  C   UNL     1     -13.731   4.226   6.259  0.00  0.00    +0.000 C 
ENDBRANCH  17  24
TORSDOF 4
ENDMDL
MODEL 6
REMARK VINA RESULT:    -5.018      1.598      2.155
REMARK INTER + INTRA:          -6.358
REMARK INTER:                  -6.035
REMARK INTRA:                  -0.323
REMARK UNBOUND:                -0.313
REMARK  Name = ./IMPHY000007_3D.pdb
REMARK  7 active torsions:
REMARK  status: ('A' for Active; 'I' for Inactive)
REMARK    1  A    between atoms: O_1  and  C_14
REMARK    2  A    between atoms: O_1  and  C_22
REMARK    3  A    between atoms: O_2  and  C_12
REMARK    4  A    between atoms: O_3  and  C_20
REMARK    5  A    between atoms: O_3  and  C_23
REMARK    6  A    between atoms: O_4  and  C_21
REMARK    7  A    between atoms: O_4  and  C_24
REMARK                            x       y       z     vdW  Elec       q    Type
REMARK                         _______ _______ _______ _____ _____    ______ ____
ROOT
ATOM      1  N   UNL     1     -17.763   2.587   4.709  0.00  0.00    +0.000 NA
ATOM      2  C   UNL     1     -16.427   3.088   4.285  0.00  0.00    +0.000 C 
ATOM      3  C   UNL     1     -16.174   4.477   4.920  0.00  0.00    +0.000 C 
ATOM      4  C   UNL     1     -15.538   2.069   4.976  0.00  0.00    +0.000 C 
ATOM      5  C   UNL     1     -16.266   3.107   2.750  0.00  0.00    +0.000 A 
ATOM      6  C   UNL     1     -18.898   3.085   3.955  0.00  0.00    +0.000 C 
ATOM      7  C   UNL     1     -17.646   1.126   4.854  0.00  0.00    +0.000 C 
ATOM      8  C   UNL     1     -18.793   2.864   2.450  0.00  0.00    +0.000 C 
ATOM      9  C   UNL     1     -17.394   3.041   1.905  0.00  0.00    +0.000 A 
ATOM     10  C   UNL     1     -14.679   4.843   5.033  0.00  0.00    +0.000 C 
ATOM     11  C   UNL     1     -16.211   0.942   5.234  0.00  0.00    +0.000 C 
ATOM     12  C   UNL     1     -14.214   2.408   5.419  0.00  0.00    +0.000 C 
ATOM     13  C   UNL     1     -13.805   3.686   5.447  0.00  0.00    +0.000 C 
ATOM     14  C   UNL     1     -15.001   3.211   2.140  0.00  0.00    +0.000 A 
ATOM     15  C   UNL     1     -17.237   3.103   0.507  0.00  0.00    +0.000 A 
ATOM     16  C   UNL     1     -14.856   3.266   0.752  0.00  0.00    +0.000 A 
ATOM     17  C   UNL     1     -15.974   3.218  -0.067  0.00  0.00    +0.000 A 
ENDROOT
BRANCH  10  18
ATOM     18  O   UNL     1     -14.535   5.883   6.000  0.00  0.00    +0.000 OA
ATOM     19  C   UNL     1     -15.370   5.662   7.126  0.00  0.00    +0.000 C 
ENDBRANCH  10  18
BRANCH   8  20
ATOM     20  O   UNL     1     -19.323   1.573   2.140  0.00  0.00    +0.000 OA
ATOM     21  H   UNL     1     -19.913   1.315   2.869  0.00  0.00    +0.000 HD
ENDBRANCH   8  20
BRANCH  16  22
ATOM     22  O   UNL     1     -13.608   3.381   0.216  0.00  0.00    +0.000 OA
ATOM     23  C   UNL     1     -12.513   2.951   1.023  0.00  0.00    +0.000 C 
ENDBRANCH  16  22
BRANCH  17  24
ATOM     24  O   UNL     1     -15.853   3.275  -1.419  0.00  0.00    +0.000 OA
ATOM     25  C   UNL     1     -17.060   3.312  -2.177  0.00  0.00    +0.000 C 
ENDBRANCH  17  24
TORSDOF 4
ENDMDL
MODEL 7
REMARK VINA RESULT:    -4.947      2.878      4.370
REMARK INTER + INTRA:          -6.271
REMARK INTER:                  -6.031
REMARK INTRA:                  -0.241
REMARK UNBOUND:                -0.313
REMARK  Name = ./IMPHY000007_3D.pdb
REMARK  7 active torsions:
REMARK  status: ('A' for Active; 'I' for Inactive)
REMARK    1  A    between atoms: O_1  and  C_14
REMARK    2  A    between atoms: O_1  and  C_22
REMARK    3  A    between atoms: O_2  and  C_12
REMARK    4  A    between atoms: O_3  and  C_20
REMARK    5  A    between atoms: O_3  and  C_23
REMARK    6  A    between atoms: O_4  and  C_21
REMARK    7  A    between atoms: O_4  and  C_24
REMARK                            x       y       z     vdW  Elec       q    Type
REMARK                         _______ _______ _______ _____ _____    ______ ____
ROOT
ATOM      1  N   UNL     1     -17.348   4.525  -0.094  0.00  0.00    +0.000 NA
ATOM      2  C   UNL     1     -17.611   3.843   1.203  0.00  0.00    +0.000 C 
ATOM      3  C   UNL     1     -16.265   3.549   1.910  0.00  0.00    +0.000 C 
ATOM      4  C   UNL     1     -18.315   4.964   1.946  0.00  0.00    +0.000 C 
ATOM      5  C   UNL     1     -18.474   2.576   1.037  0.00  0.00    +0.000 A 
ATOM      6  C   UNL     1     -17.005   3.661  -1.208  0.00  0.00    +0.000 C 
ATOM      7  C   UNL     1     -18.446   5.484  -0.304  0.00  0.00    +0.000 C 
ATOM      8  C   UNL     1     -18.022   2.558  -1.479  0.00  0.00    +0.000 C 
ATOM      9  C   UNL     1     -18.623   1.963  -0.227  0.00  0.00    +0.000 A 
ATOM     10  C   UNL     1     -16.394   3.379   3.439  0.00  0.00    +0.000 C 
ATOM     11  C   UNL     1     -18.841   5.850   1.092  0.00  0.00    +0.000 C 
ATOM     12  C   UNL     1     -18.233   5.085   3.375  0.00  0.00    +0.000 C 
ATOM     13  C   UNL     1     -17.350   4.355   4.076  0.00  0.00    +0.000 C 
ATOM     14  C   UNL     1     -19.124   1.974   2.132  0.00  0.00    +0.000 A 
ATOM     15  C   UNL     1     -19.378   0.781  -0.357  0.00  0.00    +0.000 A 
ATOM     16  C   UNL     1     -19.875   0.805   1.990  0.00  0.00    +0.000 A 
ATOM     17  C   UNL     1     -19.999   0.204   0.746  0.00  0.00    +0.000 A 
ENDROOT
BRANCH  10  18
ATOM     18  O   UNL     1     -15.107   3.561   4.030  0.00  0.00    +0.000 OA
ATOM     19  C   UNL     1     -15.163   4.464   5.124  0.00  0.00    +0.000 C 
ENDBRANCH  10  18
BRANCH   8  20
ATOM     20  O   UNL     1     -19.027   3.070  -2.357  0.00  0.00    +0.000 OA
ATOM     21  H   UNL     1     -19.391   3.875  -1.951  0.00  0.00    +0.000 HD
ENDBRANCH   8  20
BRANCH  16  22
ATOM     22  O   UNL     1     -20.471   0.258   3.087  0.00  0.00    +0.000 OA
ATOM     23  C   UNL     1     -21.110   1.156   3.993  0.00  0.00    +0.000 C 
ENDBRANCH  16  22
BRANCH  17  24
ATOM     24  O   UNL     1     -20.722  -0.936   0.590  0.00  0.00    +0.000 OA
ATOM     25  C   UNL     1     -20.573  -1.634  -0.645  0.00  0.00    +0.000 C 
ENDBRANCH  17  24
TORSDOF 4
ENDMDL
MODEL 8
REMARK VINA RESULT:    -4.833      2.969      5.218
REMARK INTER + INTRA:          -6.135
REMARK INTER:                  -5.792
REMARK INTRA:                  -0.343
REMARK UNBOUND:                -0.313
REMARK  Name = ./IMPHY000007_3D.pdb
REMARK  7 active torsions:
REMARK  status: ('A' for Active; 'I' for Inactive)
REMARK    1  A    between atoms: O_1  and  C_14
REMARK    2  A    between atoms: O_1  and  C_22
REMARK    3  A    between atoms: O_2  and  C_12
REMARK    4  A    between atoms: O_3  and  C_20
REMARK    5  A    between atoms: O_3  and  C_23
REMARK    6  A    between atoms: O_4  and  C_21
REMARK    7  A    between atoms: O_4  and  C_24
REMARK                            x       y       z     vdW  Elec       q    Type
REMARK                         _______ _______ _______ _____ _____    ______ ____
ROOT
ATOM      1  N   UNL     1     -17.424   3.074  -0.056  0.00  0.00    +0.000 NA
ATOM      2  C   UNL     1     -18.018   3.065   1.309  0.00  0.00    +0.000 C 
ATOM      3  C   UNL     1     -16.942   2.631   2.335  0.00  0.00    +0.000 C 
ATOM      4  C   UNL     1     -18.286   4.549   1.485  0.00  0.00    +0.000 C 
ATOM      5  C   UNL     1     -19.291   2.196   1.391  0.00  0.00    +0.000 A 
ATOM      6  C   UNL     1     -17.365   1.792  -0.732  0.00  0.00    +0.000 C 
ATOM      7  C   UNL     1     -18.051   4.188  -0.788  0.00  0.00    +0.000 C 
ATOM      8  C   UNL     1     -18.708   1.076  -0.832  0.00  0.00    +0.000 C 
ATOM      9  C   UNL     1     -19.576   1.237   0.394  0.00  0.00    +0.000 A 
ATOM     10  C   UNL     1     -17.233   3.106   3.774  0.00  0.00    +0.000 C 
ATOM     11  C   UNL     1     -18.369   5.165   0.299  0.00  0.00    +0.000 C 
ATOM     12  C   UNL     1     -18.262   5.167   2.781  0.00  0.00    +0.000 C 
ATOM     13  C   UNL     1     -17.780   4.509   3.847  0.00  0.00    +0.000 C 
ATOM     14  C   UNL     1     -20.196   2.308   2.464  0.00  0.00    +0.000 A 
ATOM     15  C   UNL     1     -20.718   0.420   0.504  0.00  0.00    +0.000 A 
ATOM     16  C   UNL     1     -21.328   1.496   2.560  0.00  0.00    +0.000 A 
ATOM     17  C   UNL     1     -21.588   0.547   1.582  0.00  0.00    +0.000 A 
ENDROOT
BRANCH  10  18
ATOM     18  O   UNL     1     -16.019   3.058   4.525  0.00  0.00    +0.000 OA
ATOM     19  C   UNL     1     -14.943   3.642   3.806  0.00  0.00    +0.000 C 
ENDBRANCH  10  18
BRANCH   8  20
ATOM     20  O   UNL     1     -19.375   1.520  -2.016  0.00  0.00    +0.000 OA
ATOM     21  H   UNL     1     -18.854   2.251  -2.390  0.00  0.00    +0.000 HD
ENDBRANCH   8  20
BRANCH  16  22
ATOM     22  O   UNL     1     -22.163   1.639   3.627  0.00  0.00    +0.000 OA
ATOM     23  C   UNL     1     -22.849   2.882   3.753  0.00  0.00    +0.000 C 
ENDBRANCH  16  22
BRANCH  17  24
ATOM     24  O   UNL     1     -22.682  -0.256   1.661  0.00  0.00    +0.000 OA
ATOM     25  C   UNL     1     -22.453  -1.663   1.684  0.00  0.00    +0.000 C 
ENDBRANCH  17  24
TORSDOF 4
ENDMDL
MODEL 9
REMARK VINA RESULT:    -4.800      2.297      5.274
REMARK INTER + INTRA:          -6.095
REMARK INTER:                  -5.797
REMARK INTRA:                  -0.298
REMARK UNBOUND:                -0.313
REMARK  Name = ./IMPHY000007_3D.pdb
REMARK  7 active torsions:
REMARK  status: ('A' for Active; 'I' for Inactive)
REMARK    1  A    between atoms: O_1  and  C_14
REMARK    2  A    between atoms: O_1  and  C_22
REMARK    3  A    between atoms: O_2  and  C_12
REMARK    4  A    between atoms: O_3  and  C_20
REMARK    5  A    between atoms: O_3  and  C_23
REMARK    6  A    between atoms: O_4  and  C_21
REMARK    7  A    between atoms: O_4  and  C_24
REMARK                            x       y       z     vdW  Elec       q    Type
REMARK                         _______ _______ _______ _____ _____    ______ ____
ROOT
ATOM      1  N   UNL     1     -13.800   3.078   4.750  0.00  0.00    +0.000 NA
ATOM      2  C   UNL     1     -14.281   2.814   3.366  0.00  0.00    +0.000 C 
ATOM      3  C   UNL     1     -13.262   3.389   2.350  0.00  0.00    +0.000 C 
ATOM      4  C   UNL     1     -14.186   1.299   3.344  0.00  0.00    +0.000 C 
ATOM      5  C   UNL     1     -15.709   3.346   3.127  0.00  0.00    +0.000 A 
ATOM      6  C   UNL     1     -14.086   4.397   5.281  0.00  0.00    +0.000 C 
ATOM      7  C   UNL     1     -14.205   1.924   5.571  0.00  0.00    +0.000 C 
ATOM      8  C   UNL     1     -15.561   4.782   5.237  0.00  0.00    +0.000 C 
ATOM      9  C   UNL     1     -16.279   4.302   3.997  0.00  0.00    +0.000 A 
ATOM     10  C   UNL     1     -13.331   2.721   0.960  0.00  0.00    +0.000 C 
ATOM     11  C   UNL     1     -14.211   0.798   4.585  0.00  0.00    +0.000 C 
ATOM     12  C   UNL     1     -13.928   0.581   2.127  0.00  0.00    +0.000 C 
ATOM     13  C   UNL     1     -13.535   1.228   1.018  0.00  0.00    +0.000 C 
ATOM     14  C   UNL     1     -16.485   2.919   2.032  0.00  0.00    +0.000 A 
ATOM     15  C   UNL     1     -17.566   4.812   3.743  0.00  0.00    +0.000 A 
ATOM     16  C   UNL     1     -17.763   3.428   1.793  0.00  0.00    +0.000 A 
ATOM     17  C   UNL     1     -18.304   4.379   2.646  0.00  0.00    +0.000 A 
ENDROOT
BRANCH  10  18
ATOM     18  O   UNL     1     -12.110   2.981   0.268  0.00  0.00    +0.000 OA
ATOM     19  C   UNL     1     -10.983   2.660   1.068  0.00  0.00    +0.000 C 
ENDBRANCH  10  18
BRANCH   8  20
ATOM     20  O   UNL     1     -16.192   4.310   6.430  0.00  0.00    +0.000 OA
ATOM     21  H   UNL     1     -15.508   4.244   7.118  0.00  0.00    +0.000 HD
ENDBRANCH   8  20
BRANCH  16  22
ATOM     22  O   UNL     1     -18.464   2.990   0.710  0.00  0.00    +0.000 OA
ATOM     23  C   UNL     1     -18.734   1.591   0.634  0.00  0.00    +0.000 C 
ENDBRANCH  16  22
BRANCH  17  24
ATOM     24  O   UNL     1     -19.545   4.889   2.427  0.00  0.00    +0.000 OA
ATOM     25  C   UNL     1     -20.652   4.124   2.899  0.00  0.00    +0.000 C 
ENDBRANCH  17  24
TORSDOF 4
ENDMDL
