REMARK  Name = ./IMPHY000006_3D.pdb
REMARK  2 active torsions:
REMARK  status: ('A' for Active; 'I' for Inactive)
REMARK    1  A    between atoms: C_3  and  C_11
REMARK    2  A    between atoms: C_5  and  C_12
REMARK                            x       y       z     vdW  Elec       q    Type
REMARK                         _______ _______ _______ _____ _____    ______ ____
ROOT
ATOM      1  C   UNL     1       0.384   0.488   0.000  0.00  0.00    +0.000 A 
ATOM      2  C   UNL     1      -0.081  -0.849   0.000  0.00  0.00    +0.000 A 
ATOM      3  C   UNL     1       1.767   0.734   0.000  0.00  0.00    +0.000 A 
ATOM      4  C   UNL     1      -1.464  -1.095   0.000  0.00  0.00    +0.000 A 
ATOM      5  C   UNL     1      -2.375  -0.038   0.000  0.00  0.00    +0.000 A 
ATOM      6  C   UNL     1      -0.547   1.539   0.000  0.00  0.00    +0.000 A 
ATOM      7  C   UNL     1       0.850  -1.900   0.000  0.00  0.00    +0.000 A 
ATOM      8  C   UNL     1      -1.917   1.276   0.000  0.00  0.00    +0.000 A 
ATOM      9  C   UNL     1       2.678  -0.323   0.000  0.00  0.00    +0.000 A 
ATOM     10  C   UNL     1       2.220  -1.637   0.000  0.00  0.00    +0.000 A 
ATOM     11  C   UNL     1       2.326   2.123  -0.001  0.00  0.00    +0.000 C 
ATOM     12  C   UNL     1      -3.840  -0.318   0.000  0.00  0.00    +0.000 C 
ENDROOT
TORSDOF 0
