REMARK  Name = ./IMPHY000003_3D.pdb
REMARK  4 active torsions:
REMARK  status: ('A' for Active; 'I' for Inactive)
REMARK    1  A    between atoms: O_2  and  C_13
REMARK    2  A    between atoms: C_3  and  C_12
REMARK    3  A    between atoms: C_5  and  C_15
REMARK    4  A    between atoms: C_5  and  C_16
REMARK                            x       y       z     vdW  Elec       q    Type
REMARK                         _______ _______ _______ _____ _____    ______ ____
ROOT
ATOM      1  O   UNL     1       3.685  -0.037   0.225  0.00  0.00    +0.000 OA
ATOM      2  C   UNL     1      -0.062  -0.517  -0.255  0.00  0.00    +0.000 C 
ATOM      3  C   UNL     1      -1.038   0.599   0.289  0.00  0.00    +0.000 C 
ATOM      4  C   UNL     1      -2.579   0.315   0.175  0.00  0.00    +0.000 C 
ATOM      5  C   UNL     1       1.342  -0.173   0.349  0.00  0.00    +0.000 C 
ATOM      6  C   UNL     1      -0.513  -1.904   0.261  0.00  0.00    +0.000 C 
ATOM      7  C   UNL     1      -2.876  -1.127   0.656  0.00  0.00    +0.000 C 
ATOM      8  C   UNL     1      -0.600   2.009  -0.195  0.00  0.00    +0.000 C 
ATOM      9  C   UNL     1      -1.991  -2.189   0.013  0.00  0.00    +0.000 C 
ATOM     10  C   UNL     1       1.746   1.253   0.156  0.00  0.00    +0.000 C 
ATOM     11  C   UNL     1       0.013  -0.561  -1.800  0.00  0.00    +0.000 C 
ATOM     12  C   UNL     1       2.586  -0.873  -0.193  0.00  0.00    +0.000 C 
ATOM     13  C   UNL     1       0.885   2.242  -0.109  0.00  0.00    +0.000 C 
ATOM     14  C   UNL     1      -3.178   0.528  -1.229  0.00  0.00    +0.000 C 
ATOM     15  C   UNL     1      -3.347   1.278   1.118  0.00  0.00    +0.000 C 
ATOM     16  C   UNL     1       3.231   1.330   0.179  0.00  0.00    +0.000 C 
ENDROOT
BRANCH  12  17
ATOM     17  O   UNL     1       2.694  -2.174   0.361  0.00  0.00    +0.000 OA
ATOM     18  H   UNL     1       3.268  -2.690  -0.230  0.00  0.00    +0.000 HD
ENDBRANCH  12  17
TORSDOF 1
