REMARK  Name = ./IMPHY000004_3D.pdb
REMARK  2 active torsions:
REMARK  status: ('A' for Active; 'I' for Inactive)
REMARK    1  A    between atoms: C_3  and  C_9
REMARK    2  A    between atoms: C_4  and  C_10
REMARK                            x       y       z     vdW  Elec       q    Type
REMARK                         _______ _______ _______ _____ _____    ______ ____
ROOT
ATOM      1  C   UNL     1       0.474   0.543   0.000  0.00  0.00    +0.000 A 
ATOM      2  C   UNL     1       0.334  -0.866   0.000  0.00  0.00    +0.000 A 
ATOM      3  C   UNL     1      -0.676   1.347   0.000  0.00  0.00    +0.000 A 
ATOM      4  C   UNL     1      -2.085  -0.613   0.000  0.00  0.00    +0.000 A 
ATOM      5  C   UNL     1      -0.953  -1.428   0.000  0.00  0.00    +0.000 A 
ATOM      6  C   UNL     1      -1.947   0.772   0.000  0.00  0.00    +0.000 A 
ATOM      7  C   UNL     1       1.762   1.105   0.000  0.00  0.00    +0.000 A 
ATOM      8  C   UNL     1       1.485  -1.671   0.000  0.00  0.00    +0.000 A 
ATOM      9  C   UNL     1      -0.599   2.843   0.000  0.00  0.00    +0.000 C 
ATOM     10  C   UNL     1      -3.445  -1.227   0.000  0.00  0.00    +0.000 C 
ATOM     11  C   UNL     1       2.894   0.290   0.000  0.00  0.00    +0.000 A 
ATOM     12  C   UNL     1       2.756  -1.095   0.000  0.00  0.00    +0.000 A 
ENDROOT
TORSDOF 0
