REMARK  Name = ./IMPHY000008_3D.pdb
REMARK  22 active torsions:
REMARK  status: ('A' for Active; 'I' for Inactive)
REMARK    1  A    between atoms: O_2  and  C_21
REMARK    2  A    between atoms: O_2  and  C_36
REMARK    3  A    between atoms: O_3  and  C_23
REMARK    4  A    between atoms: O_3  and  C_37
REMARK    5  A    between atoms: O_4  and  C_34
REMARK    6  A    between atoms: O_4  and  C_38
REMARK    7  A    between atoms: O_9  and  C_42
REMARK    8  A    between atoms: O_9  and  C_47
REMARK    9  A    between atoms: O_10  and  C_44
REMARK   10  A    between atoms: O_10  and  C_46
REMARK   11  A    between atoms: O_12  and  C_48
REMARK   12  A    between atoms: O_13  and  C_49
REMARK   13  A    between atoms: O_13  and  C_53
REMARK   14  A    between atoms: O_14  and  C_51
REMARK   15  A    between atoms: C_17  and  C_28
REMARK   16  A    between atoms: C_19  and  C_30
REMARK   17  A    between atoms: C_24  and  C_33
REMARK   18  A    between atoms: C_33  and  C_35
REMARK   19  A    between atoms: C_36  and  C_39
REMARK   20  A    between atoms: C_37  and  C_40
REMARK   21  A    between atoms: C_43  and  C_45
REMARK   22  A    between atoms: C_50  and  C_52
REMARK                            x       y       z     vdW  Elec       q    Type
REMARK                         _______ _______ _______ _____ _____    ______ ____
ROOT
ATOM      1  O   UNL     1      -5.071  -0.464   2.354  0.00  0.00    +0.000 OA
ATOM      2  C   UNL     1      -6.002   0.481   1.865  0.00  0.00    +0.000 C 
ATOM      3  C   UNL     1      -4.533   0.513   1.441  0.00  0.00    +0.000 C 
ATOM      4  C   UNL     1      -7.143  -0.141   1.071  0.00  0.00    +0.000 C 
ATOM      5  C   UNL     1      -4.189   0.144   0.008  0.00  0.00    +0.000 C 
ATOM      6  C   UNL     1      -2.859  -0.706  -0.057  0.00  0.00    +0.000 C 
ATOM      7  C   UNL     1      -6.518   1.614   2.671  0.00  0.00    +0.000 C 
ATOM      8  C   UNL     1      -6.595  -0.919  -0.166  0.00  0.00    +0.000 C 
ATOM      9  C   UNL     1      -3.448   1.289   2.150  0.00  0.00    +0.000 C 
ATOM     10  C   UNL     1      -5.404  -0.250  -0.878  0.00  0.00    +0.000 C 
ATOM     11  C   UNL     1      -8.110   1.104   0.889  0.00  0.00    +0.000 C 
ATOM     12  C   UNL     1      -1.748   0.123   0.685  0.00  0.00    +0.000 C 
ATOM     13  C   UNL     1      -7.425   2.274   1.635  0.00  0.00    +0.000 C 
ATOM     14  C   UNL     1      -2.137   0.496   2.124  0.00  0.00    +0.000 C 
ATOM     15  C   UNL     1      -7.913  -1.145   1.986  0.00  0.00    +0.000 C 
ATOM     16  C   UNL     1      -2.366  -0.880  -1.522  0.00  0.00    +0.000 C 
ATOM     17  C   UNL     1      -3.051  -2.107   0.557  0.00  0.00    +0.000 C 
ATOM     18  C   UNL     1      -0.364  -0.540   0.630  0.00  0.00    +0.000 C 
ATOM     19  C   UNL     1      -0.977  -1.515  -1.627  0.00  0.00    +0.000 C 
ATOM     20  C   UNL     1       0.088  -0.770  -0.818  0.00  0.00    +0.000 C 
ENDROOT
BRANCH  11  22
ATOM     21  O   UNL     1      -8.890   0.601  -1.342  0.00  0.00    +0.000 OA
ATOM     22  C   UNL     1      -8.628   1.462  -0.502  0.00  0.00    +0.000 C 
ATOM     23  C   UNL     1      -8.960   2.905  -0.793  0.00  0.00    +0.000 C 
ENDBRANCH  11  22
BRANCH   8  24
ATOM     24  O   UNL     1      -6.203  -2.258   0.246  0.00  0.00    +0.000 OA
BRANCH  24  26
ATOM     25  O   UNL     1      -6.700  -3.105  -1.831  0.00  0.00    +0.000 OA
ATOM     26  C   UNL     1      -6.364  -3.255  -0.666  0.00  0.00    +0.000 C 
ATOM     27  C   UNL     1      -6.097  -4.584  -0.028  0.00  0.00    +0.000 C 
ENDBRANCH  24  26
ENDBRANCH   8  24
BRANCH  10  28
ATOM     28  O   UNL     1      -5.924   0.970  -1.484  0.00  0.00    +0.000 OA
BRANCH  28  30
ATOM     29  O   UNL     1      -4.566   0.695  -3.321  0.00  0.00    +0.000 OA
ATOM     30  C   UNL     1      -5.456   1.281  -2.725  0.00  0.00    +0.000 C 
ATOM     31  C   UNL     1      -6.183   2.475  -3.263  0.00  0.00    +0.000 C 
ENDBRANCH  28  30
ENDBRANCH  10  28
BRANCH  20  32
ATOM     32  O   UNL     1       1.278  -1.562  -0.879  0.00  0.00    +0.000 OA
BRANCH  32  34
ATOM     33  O   UNL     1       2.712   0.273  -1.192  0.00  0.00    +0.000 OA
ATOM     34  C   UNL     1       2.460  -0.901  -0.432  0.00  0.00    +0.000 C 
ATOM     35  C   UNL     1       3.614  -1.871  -0.626  0.00  0.00    +0.000 C 
ATOM     36  C   UNL     1       4.941  -1.254  -0.189  0.00  0.00    +0.000 C 
ATOM     37  C   UNL     1       3.855   0.981  -0.712  0.00  0.00    +0.000 C 
ATOM     38  C   UNL     1       5.147   0.143  -0.826  0.00  0.00    +0.000 C 
ATOM     39  C   UNL     1       3.958   2.273  -1.519  0.00  0.00    +0.000 C 
BRANCH  36  40
ATOM     40  O   UNL     1       6.015  -2.118  -0.607  0.00  0.00    +0.000 OA
ATOM     41  C   UNL     1       6.197  -3.245   0.241  0.00  0.00    +0.000 C 
ENDBRANCH  36  40
BRANCH  38  42
ATOM     42  O   UNL     1       6.175   0.903  -0.168  0.00  0.00    +0.000 OA
BRANCH  42  44
ATOM     43  O   UNL     1       7.897  -0.327   0.787  0.00  0.00    +0.000 OA
ATOM     44  C   UNL     1       7.504   0.417  -0.365  0.00  0.00    +0.000 C 
ATOM     45  C   UNL     1       8.435   1.647  -0.544  0.00  0.00    +0.000 C 
ATOM     46  C   UNL     1       9.750   1.464   0.251  0.00  0.00    +0.000 C 
ATOM     47  C   UNL     1       9.165  -0.975   0.590  0.00  0.00    +0.000 C 
ATOM     48  C   UNL     1      10.241   0.017   0.105  0.00  0.00    +0.000 C 
ATOM     49  C   UNL     1       9.546  -1.580   1.936  0.00  0.00    +0.000 C 
BRANCH  45  50
ATOM     50  O   UNL     1       8.697   1.852  -1.948  0.00  0.00    +0.000 OA
ATOM     51  H   UNL     1       9.275   1.113  -2.225  0.00  0.00    +0.000 HD
ENDBRANCH  45  50
BRANCH  46  52
ATOM     52  O   UNL     1      10.819   2.316  -0.206  0.00  0.00    +0.000 OA
ATOM     53  C   UNL     1      10.566   3.698   0.020  0.00  0.00    +0.000 C 
ENDBRANCH  46  52
BRANCH  48  54
ATOM     54  O   UNL     1      10.521  -0.211  -1.292  0.00  0.00    +0.000 OA
ATOM     55  H   UNL     1      11.228   0.434  -1.506  0.00  0.00    +0.000 HD
ENDBRANCH  48  54
ENDBRANCH  42  44
ENDBRANCH  38  42
ENDBRANCH  32  34
ENDBRANCH  20  32
TORSDOF 13
