REMARK  Name = ./IMPHY000009_3D.pdb
REMARK  2 active torsions:
REMARK  status: ('A' for Active; 'I' for Inactive)
REMARK    1  A    between atoms: C_3  and  C_11
REMARK    2  A    between atoms: C_4  and  C_12
REMARK                            x       y       z     vdW  Elec       q    Type
REMARK                         _______ _______ _______ _____ _____    ______ ____
ROOT
ATOM      1  C   UNL     1      -0.403  -0.582   0.000  0.00  0.00    +0.000 A 
ATOM      2  C   UNL     1       0.403   0.582   0.000  0.00  0.00    +0.000 A 
ATOM      3  C   UNL     1      -1.801  -0.448   0.000  0.00  0.00    +0.000 A 
ATOM      4  C   UNL     1       1.801   0.448   0.000  0.00  0.00    +0.000 A 
ATOM      5  C   UNL     1       0.212  -1.844   0.000  0.00  0.00    +0.000 A 
ATOM      6  C   UNL     1      -0.212   1.844   0.000  0.00  0.00    +0.000 A 
ATOM      7  C   UNL     1      -2.396   0.814   0.000  0.00  0.00    +0.000 A 
ATOM      8  C   UNL     1       2.396  -0.814   0.000  0.00  0.00    +0.000 A 
ATOM      9  C   UNL     1       1.603  -1.958   0.000  0.00  0.00    +0.000 A 
ATOM     10  C   UNL     1      -1.603   1.958   0.000  0.00  0.00    +0.000 A 
ATOM     11  C   UNL     1      -2.713  -1.636   0.000  0.00  0.00    +0.000 C 
ATOM     12  C   UNL     1       2.712   1.636   0.001  0.00  0.00    +0.000 C 
ENDROOT
TORSDOF 0
