REMARK  Name = ./IMPHY000007_3D.pdb
REMARK  7 active torsions:
REMARK  status: ('A' for Active; 'I' for Inactive)
REMARK    1  A    between atoms: O_1  and  C_14
REMARK    2  A    between atoms: O_1  and  C_22
REMARK    3  A    between atoms: O_2  and  C_12
REMARK    4  A    between atoms: O_3  and  C_20
REMARK    5  A    between atoms: O_3  and  C_23
REMARK    6  A    between atoms: O_4  and  C_21
REMARK    7  A    between atoms: O_4  and  C_24
REMARK                            x       y       z     vdW  Elec       q    Type
REMARK                         _______ _______ _______ _____ _____    ______ ____
ROOT
ATOM      1  N   UNL     1      -1.674   1.978   0.172  0.00  0.00    +0.000 NA
ATOM      2  C   UNL     1      -1.337   0.548  -0.071  0.00  0.00    +0.000 C 
ATOM      3  C   UNL     1      -2.162  -0.344   0.889  0.00  0.00    +0.000 C 
ATOM      4  C   UNL     1      -1.888   0.388  -1.477  0.00  0.00    +0.000 C 
ATOM      5  C   UNL     1       0.178   0.275   0.032  0.00  0.00    +0.000 A 
ATOM      6  C   UNL     1      -0.985   2.614   1.279  0.00  0.00    +0.000 C 
ATOM      7  C   UNL     1      -1.615   2.659  -1.133  0.00  0.00    +0.000 C 
ATOM      8  C   UNL     1       0.535   2.517   1.207  0.00  0.00    +0.000 C 
ATOM      9  C   UNL     1       1.036   1.195   0.673  0.00  0.00    +0.000 A 
ATOM     10  C   UNL     1      -2.340  -1.793   0.387  0.00  0.00    +0.000 C 
ATOM     11  C   UNL     1      -1.980   1.572  -2.094  0.00  0.00    +0.000 C 
ATOM     12  C   UNL     1      -2.388  -0.874  -1.947  0.00  0.00    +0.000 C 
ATOM     13  C   UNL     1      -2.598  -1.890  -1.095  0.00  0.00    +0.000 C 
ATOM     14  C   UNL     1       0.755  -0.901  -0.485  0.00  0.00    +0.000 A 
ATOM     15  C   UNL     1       2.410   0.913   0.799  0.00  0.00    +0.000 A 
ATOM     16  C   UNL     1       2.120  -1.168  -0.359  0.00  0.00    +0.000 A 
ATOM     17  C   UNL     1       2.949  -0.263   0.288  0.00  0.00    +0.000 A 
ENDROOT
BRANCH  10  18
ATOM     18  O   UNL     1      -3.444  -2.382   1.074  0.00  0.00    +0.000 OA
ATOM     19  C   UNL     1      -3.268  -2.325   2.481  0.00  0.00    +0.000 C 
ENDBRANCH  10  18
BRANCH   8  20
ATOM     20  O   UNL     1       1.027   3.619   0.441  0.00  0.00    +0.000 OA
ATOM     21  H   UNL     1       0.757   4.436   0.894  0.00  0.00    +0.000 HD
ENDBRANCH   8  20
BRANCH  16  22
ATOM     22  O   UNL     1       2.622  -2.329  -0.866  0.00  0.00    +0.000 OA
ATOM     23  C   UNL     1       2.634  -3.463  -0.001  0.00  0.00    +0.000 C 
ENDBRANCH  16  22
BRANCH  17  24
ATOM     24  O   UNL     1       4.279  -0.508   0.424  0.00  0.00    +0.000 OA
ATOM     25  C   UNL     1       5.134  -0.039  -0.617  0.00  0.00    +0.000 C 
ENDBRANCH  17  24
TORSDOF 4
