REMARK  Name = ./IMPHY000002_3D.pdb
REMARK  25 active torsions:
REMARK  status: ('A' for Active; 'I' for Inactive)
REMARK    1  A    between atoms: O_2  and  C_21
REMARK    2  A    between atoms: O_2  and  C_37
REMARK    3  A    between atoms: O_3  and  C_23
REMARK    4  A    between atoms: O_3  and  C_36
REMARK    5  A    between atoms: O_4  and  C_34
REMARK    6  A    between atoms: O_4  and  C_39
REMARK    7  A    between atoms: O_9  and  C_46
REMARK    8  A    between atoms: O_9  and  C_54
REMARK    9  A    between atoms: O_10  and  C_48
REMARK   10  A    between atoms: O_10  and  C_55
REMARK   11  A    between atoms: O_12  and  C_56
REMARK   12  A    between atoms: O_13  and  C_57
REMARK   13  A    between atoms: O_13  and  C_61
REMARK   14  A    between atoms: O_14  and  C_59
REMARK   15  A    between atoms: C_17  and  C_28
REMARK   16  A    between atoms: C_19  and  C_30
REMARK   17  A    between atoms: C_24  and  C_33
REMARK   18  A    between atoms: C_33  and  C_35
REMARK   19  A    between atoms: C_36  and  C_38
REMARK   20  A    between atoms: C_37  and  C_40
REMARK   21  A    between atoms: C_38  and  C_41
REMARK   22  A    between atoms: C_38  and  C_43
REMARK   23  A    between atoms: C_41  and  C_49
REMARK   24  A    between atoms: C_47  and  C_52
REMARK   25  A    between atoms: C_58  and  C_60
REMARK                            x       y       z     vdW  Elec       q    Type
REMARK                         _______ _______ _______ _____ _____    ______ ____
ROOT
ATOM      1  O   UNL     1      -4.022   2.624   2.135  0.00  0.00    +0.000 OA
ATOM      2  C   UNL     1      -4.745   2.924   0.933  0.00  0.00    +0.000 C 
ATOM      3  C   UNL     1      -3.313   2.404   0.910  0.00  0.00    +0.000 C 
ATOM      4  C   UNL     1      -5.944   2.042   0.660  0.00  0.00    +0.000 C 
ATOM      5  C   UNL     1      -3.046   0.946   0.545  0.00  0.00    +0.000 C 
ATOM      6  C   UNL     1      -1.712   0.435   1.249  0.00  0.00    +0.000 C 
ATOM      7  C   UNL     1      -5.090   4.376   0.729  0.00  0.00    +0.000 C 
ATOM      8  C   UNL     1      -5.556   0.677   0.039  0.00  0.00    +0.000 C 
ATOM      9  C   UNL     1      -2.180   3.366   0.683  0.00  0.00    +0.000 C 
ATOM     10  C   UNL     1      -4.306   0.051   0.723  0.00  0.00    +0.000 C 
ATOM     11  C   UNL     1      -6.789   2.967  -0.278  0.00  0.00    +0.000 C 
ATOM     12  C   UNL     1      -0.569   1.449   0.892  0.00  0.00    +0.000 C 
ATOM     13  C   UNL     1      -6.568   4.371   0.312  0.00  0.00    +0.000 C 
ATOM     14  C   UNL     1      -0.893   2.879   1.336  0.00  0.00    +0.000 C 
ATOM     15  C   UNL     1      -6.737   1.823   1.981  0.00  0.00    +0.000 C 
ATOM     16  C   UNL     1      -1.263  -0.955   0.713  0.00  0.00    +0.000 C 
ATOM     17  C   UNL     1      -1.921   0.311   2.780  0.00  0.00    +0.000 C 
ATOM     18  C   UNL     1       0.812   1.022   1.407  0.00  0.00    +0.000 C 
ATOM     19  C   UNL     1       0.132  -1.386   1.169  0.00  0.00    +0.000 C 
ATOM     20  C   UNL     1       1.209  -0.350   0.857  0.00  0.00    +0.000 C 
ENDROOT
BRANCH  11  22
ATOM     21  O   UNL     1      -5.148   2.901  -2.062  0.00  0.00    +0.000 OA
ATOM     22  C   UNL     1      -6.332   3.017  -1.742  0.00  0.00    +0.000 C 
ATOM     23  C   UNL     1      -7.382   3.349  -2.772  0.00  0.00    +0.000 C 
ENDBRANCH  11  22
BRANCH  20  24
ATOM     24  O   UNL     1       2.420  -0.811   1.462  0.00  0.00    +0.000 OA
BRANCH  24  26
ATOM     25  O   UNL     1       3.760  -0.653  -0.452  0.00  0.00    +0.000 OA
ATOM     26  C   UNL     1       3.603  -0.247   0.901  0.00  0.00    +0.000 C 
ATOM     27  C   UNL     1       4.778  -0.768   1.712  0.00  0.00    +0.000 C 
ATOM     28  C   UNL     1       6.105  -0.238   1.172  0.00  0.00    +0.000 C 
ATOM     29  C   UNL     1       4.905  -0.053  -1.057  0.00  0.00    +0.000 C 
ATOM     30  C   UNL     1       6.217  -0.466  -0.355  0.00  0.00    +0.000 C 
ATOM     31  C   UNL     1       4.908  -0.467  -2.527  0.00  0.00    +0.000 C 
BRANCH  28  32
ATOM     32  O   UNL     1       7.180  -0.934   1.829  0.00  0.00    +0.000 OA
ATOM     33  C   UNL     1       7.477  -0.422   3.122  0.00  0.00    +0.000 C 
ENDBRANCH  28  32
BRANCH  30  34
ATOM     34  O   UNL     1       7.255   0.331  -0.951  0.00  0.00    +0.000 OA
BRANCH  34  36
ATOM     35  O   UNL     1       9.122   0.758   0.369  0.00  0.00    +0.000 OA
ATOM     36  C   UNL     1       8.586  -0.094  -0.645  0.00  0.00    +0.000 C 
ATOM     37  C   UNL     1       9.430   0.066  -1.933  0.00  0.00    +0.000 C 
ATOM     38  C   UNL     1      10.879   0.479  -1.598  0.00  0.00    +0.000 C 
ATOM     39  C   UNL     1      10.374   0.258   0.870  0.00  0.00    +0.000 C 
ATOM     40  C   UNL     1      11.335  -0.143  -0.270  0.00  0.00    +0.000 C 
ATOM     41  C   UNL     1      10.966   1.375   1.722  0.00  0.00    +0.000 C 
BRANCH  40  42
ATOM     42  O   UNL     1      11.352  -1.573  -0.392  0.00  0.00    +0.000 OA
ATOM     43  H   UNL     1      11.822  -1.766  -1.226  0.00  0.00    +0.000 HD
ENDBRANCH  40  42
BRANCH  38  44
ATOM     44  O   UNL     1      11.782   0.049  -2.640  0.00  0.00    +0.000 OA
ATOM     45  C   UNL     1      11.803   0.948  -3.746  0.00  0.00    +0.000 C 
ENDBRANCH  38  44
BRANCH  37  46
ATOM     46  O   UNL     1       9.398  -1.152  -2.704  0.00  0.00    +0.000 OA
ATOM     47  H   UNL     1      10.268  -1.217  -3.140  0.00  0.00    +0.000 HD
ENDBRANCH  37  46
ENDBRANCH  34  36
ENDBRANCH  30  34
ENDBRANCH  24  26
ENDBRANCH  20  24
BRANCH  10  48
ATOM     48  O   UNL     1      -4.066  -1.214   0.051  0.00  0.00    +0.000 OA
BRANCH  48  50
ATOM     49  O   UNL     1      -5.145  -2.380   1.715  0.00  0.00    +0.000 OA
ATOM     50  C   UNL     1      -4.556  -2.340   0.643  0.00  0.00    +0.000 C 
BRANCH  50  51
ATOM     51  C   UNL     1      -4.276  -3.543  -0.241  0.00  0.00    +0.000 C 
ATOM     52  C   UNL     1      -4.117  -4.794   0.622  0.00  0.00    +0.000 C 
BRANCH  51  53
ATOM     53  C   UNL     1      -5.400  -3.670  -1.278  0.00  0.00    +0.000 C 
ATOM     54  C   UNL     1      -5.124  -4.725  -2.338  0.00  0.00    +0.000 C 
ENDBRANCH  51  53
ENDBRANCH  50  51
ENDBRANCH  48  50
ENDBRANCH  10  48
BRANCH   8  55
ATOM     55  O   UNL     1      -6.651  -0.266   0.207  0.00  0.00    +0.000 OA
BRANCH  55  57
ATOM     56  O   UNL     1      -7.614   0.320  -1.785  0.00  0.00    +0.000 OA
ATOM     57  C   UNL     1      -7.573  -0.361  -0.774  0.00  0.00    +0.000 C 
BRANCH  57  58
ATOM     58  C   UNL     1      -8.561  -1.428  -0.459  0.00  0.00    +0.000 A 
ATOM     59  C   UNL     1      -8.544  -2.135   0.751  0.00  0.00    +0.000 A 
ATOM     60  C   UNL     1      -9.538  -1.729  -1.418  0.00  0.00    +0.000 A 
ATOM     61  C   UNL     1      -9.490  -3.133   0.994  0.00  0.00    +0.000 A 
ATOM     62  C   UNL     1     -10.483  -2.726  -1.171  0.00  0.00    +0.000 A 
ATOM     63  C   UNL     1     -10.458  -3.428   0.034  0.00  0.00    +0.000 A 
ENDBRANCH  57  58
ENDBRANCH  55  57
ENDBRANCH   8  55
TORSDOF 16
