REMARK  Name = ./IMPHY000010_3D.pdb
REMARK  3 active torsions:
REMARK  status: ('A' for Active; 'I' for Inactive)
REMARK    1  A    between atoms: C_9  and  C_13
REMARK    2  A    between atoms: C_12  and  C_14
REMARK    3  A    between atoms: C_12  and  C_15
REMARK                            x       y       z     vdW  Elec       q    Type
REMARK                         _______ _______ _______ _____ _____    ______ ____
ROOT
ATOM      1  O   UNL     1       0.370   1.479   0.002  0.00  0.00    +0.000 OA
ATOM      2  O   UNL     1      -1.487   2.778  -0.070  0.00  0.00    +0.000 OA
ATOM      3  C   UNL     1      -1.214  -0.825   0.026  0.00  0.00    +0.000 A 
ATOM      4  C   UNL     1      -1.817   0.436  -0.018  0.00  0.00    +0.000 A 
ATOM      5  C   UNL     1       0.237  -0.929   0.060  0.00  0.00    +0.000 A 
ATOM      6  C   UNL     1      -2.016  -1.972   0.039  0.00  0.00    +0.000 A 
ATOM      7  C   UNL     1      -3.212   0.550  -0.050  0.00  0.00    +0.000 A 
ATOM      8  C   UNL     1      -0.984   1.662  -0.032  0.00  0.00    +0.000 A 
ATOM      9  C   UNL     1       0.959   0.197   0.047  0.00  0.00    +0.000 A 
ATOM     10  C   UNL     1      -3.406  -1.858   0.008  0.00  0.00    +0.000 A 
ATOM     11  C   UNL     1      -4.003  -0.599  -0.037  0.00  0.00    +0.000 A 
ENDROOT
BRANCH   9  12
ATOM     12  C   UNL     1       2.378   0.156   0.079  0.00  0.00    +0.000 C 
ATOM     13  C   UNL     1       3.578   0.120   0.106  0.00  0.00    +0.000 C 
BRANCH  13  14
ATOM     14  C   UNL     1       5.045   0.081   0.140  0.00  0.00    +0.000 C 
ATOM     15  C   UNL     1       5.571  -1.275  -0.300  0.00  0.00    +0.000 C 
ENDBRANCH  13  14
ENDBRANCH   9  12
TORSDOF 2
